echo -e '[0;31m#########################Starting Benchmark (crc)#########################[0m'
echo Starting crc benchmark with Number of sets=8 Line Size=16 and Associativity of 1. Total Cache size is 128 Bytes
././../../simplesim-3.0/sim-outorder -cache:il1 il1:8:64:4:l -cache:dl1 dl1:8:16:1:l -cache:il1lat 1 -cache:dl1lat 1 -mem:lat 80 2 -issue:inorder -redir:sim Results/crc_8_16_1.txt  ././../../MiBench/crc ././../../MiBench/Benchmarks/telecomm/adpcm/data/large.pcm
echo Starting crc benchmark with Number of sets=8 Line Size=16 and Associativity of 2. Total Cache size is 128 Bytes
././../../simplesim-3.0/sim-outorder -cache:il1 il1:8:64:4:l -cache:dl1 dl1:8:16:2:l -cache:il1lat 1 -cache:dl1lat 1 -mem:lat 80 2 -issue:inorder -redir:sim Results/crc_8_16_2.txt  ././../../MiBench/crc ././../../MiBench/Benchmarks/telecomm/adpcm/data/large.pcm
echo Starting crc benchmark with Number of sets=8 Line Size=16 and Associativity of 4. Total Cache size is 128 Bytes
././../../simplesim-3.0/sim-outorder -cache:il1 il1:8:64:4:l -cache:dl1 dl1:8:16:4:l -cache:il1lat 1 -cache:dl1lat 1 -mem:lat 80 2 -issue:inorder -redir:sim Results/crc_8_16_4.txt  ././../../MiBench/crc ././../../MiBench/Benchmarks/telecomm/adpcm/data/large.pcm
echo Starting crc benchmark with Number of sets=8 Line Size=32 and Associativity of 1. Total Cache size is 256 Bytes
././../../simplesim-3.0/sim-outorder -cache:il1 il1:8:64:4:l -cache:dl1 dl1:8:32:1:l -cache:il1lat 1 -cache:dl1lat 1 -mem:lat 80 2 -issue:inorder -redir:sim Results/crc_8_32_1.txt  ././../../MiBench/crc ././../../MiBench/Benchmarks/telecomm/adpcm/data/large.pcm
echo Starting crc benchmark with Number of sets=8 Line Size=32 and Associativity of 2. Total Cache size is 256 Bytes
././../../simplesim-3.0/sim-outorder -cache:il1 il1:8:64:4:l -cache:dl1 dl1:8:32:2:l -cache:il1lat 1 -cache:dl1lat 1 -mem:lat 80 2 -issue:inorder -redir:sim Results/crc_8_32_2.txt  ././../../MiBench/crc ././../../MiBench/Benchmarks/telecomm/adpcm/data/large.pcm
echo Starting crc benchmark with Number of sets=8 Line Size=32 and Associativity of 4. Total Cache size is 256 Bytes
././../../simplesim-3.0/sim-outorder -cache:il1 il1:8:64:4:l -cache:dl1 dl1:8:32:4:l -cache:il1lat 1 -cache:dl1lat 1 -mem:lat 80 2 -issue:inorder -redir:sim Results/crc_8_32_4.txt  ././../../MiBench/crc ././../../MiBench/Benchmarks/telecomm/adpcm/data/large.pcm
echo Starting crc benchmark with Number of sets=8 Line Size=64 and Associativity of 1. Total Cache size is 512 Bytes
././../../simplesim-3.0/sim-outorder -cache:il1 il1:8:64:4:l -cache:dl1 dl1:8:64:1:l -cache:il1lat 1 -cache:dl1lat 1 -mem:lat 80 2 -issue:inorder -redir:sim Results/crc_8_64_1.txt  ././../../MiBench/crc ././../../MiBench/Benchmarks/telecomm/adpcm/data/large.pcm
echo Starting crc benchmark with Number of sets=8 Line Size=64 and Associativity of 2. Total Cache size is 512 Bytes
././../../simplesim-3.0/sim-outorder -cache:il1 il1:8:64:4:l -cache:dl1 dl1:8:64:2:l -cache:il1lat 1 -cache:dl1lat 1 -mem:lat 80 2 -issue:inorder -redir:sim Results/crc_8_64_2.txt  ././../../MiBench/crc ././../../MiBench/Benchmarks/telecomm/adpcm/data/large.pcm
echo Starting crc benchmark with Number of sets=8 Line Size=64 and Associativity of 4. Total Cache size is 512 Bytes
././../../simplesim-3.0/sim-outorder -cache:il1 il1:8:64:4:l -cache:dl1 dl1:8:64:4:l -cache:il1lat 1 -cache:dl1lat 1 -mem:lat 80 2 -issue:inorder -redir:sim Results/crc_8_64_4.txt  ././../../MiBench/crc ././../../MiBench/Benchmarks/telecomm/adpcm/data/large.pcm
echo Starting crc benchmark with Number of sets=16 Line Size=16 and Associativity of 1. Total Cache size is 256 Bytes
././../../simplesim-3.0/sim-outorder -cache:il1 il1:8:64:4:l -cache:dl1 dl1:16:16:1:l -cache:il1lat 1 -cache:dl1lat 1 -mem:lat 80 2 -issue:inorder -redir:sim Results/crc_16_16_1.txt  ././../../MiBench/crc ././../../MiBench/Benchmarks/telecomm/adpcm/data/large.pcm
echo Starting crc benchmark with Number of sets=16 Line Size=16 and Associativity of 2. Total Cache size is 256 Bytes
././../../simplesim-3.0/sim-outorder -cache:il1 il1:8:64:4:l -cache:dl1 dl1:16:16:2:l -cache:il1lat 1 -cache:dl1lat 1 -mem:lat 80 2 -issue:inorder -redir:sim Results/crc_16_16_2.txt  ././../../MiBench/crc ././../../MiBench/Benchmarks/telecomm/adpcm/data/large.pcm
echo Starting crc benchmark with Number of sets=16 Line Size=16 and Associativity of 4. Total Cache size is 256 Bytes
././../../simplesim-3.0/sim-outorder -cache:il1 il1:8:64:4:l -cache:dl1 dl1:16:16:4:l -cache:il1lat 1 -cache:dl1lat 1 -mem:lat 80 2 -issue:inorder -redir:sim Results/crc_16_16_4.txt  ././../../MiBench/crc ././../../MiBench/Benchmarks/telecomm/adpcm/data/large.pcm
echo Starting crc benchmark with Number of sets=16 Line Size=32 and Associativity of 1. Total Cache size is 512 Bytes
././../../simplesim-3.0/sim-outorder -cache:il1 il1:8:64:4:l -cache:dl1 dl1:16:32:1:l -cache:il1lat 1 -cache:dl1lat 1 -mem:lat 80 2 -issue:inorder -redir:sim Results/crc_16_32_1.txt  ././../../MiBench/crc ././../../MiBench/Benchmarks/telecomm/adpcm/data/large.pcm
echo Starting crc benchmark with Number of sets=16 Line Size=32 and Associativity of 2. Total Cache size is 512 Bytes
././../../simplesim-3.0/sim-outorder -cache:il1 il1:8:64:4:l -cache:dl1 dl1:16:32:2:l -cache:il1lat 1 -cache:dl1lat 1 -mem:lat 80 2 -issue:inorder -redir:sim Results/crc_16_32_2.txt  ././../../MiBench/crc ././../../MiBench/Benchmarks/telecomm/adpcm/data/large.pcm
echo Starting crc benchmark with Number of sets=16 Line Size=32 and Associativity of 4. Total Cache size is 512 Bytes
././../../simplesim-3.0/sim-outorder -cache:il1 il1:8:64:4:l -cache:dl1 dl1:16:32:4:l -cache:il1lat 1 -cache:dl1lat 1 -mem:lat 80 2 -issue:inorder -redir:sim Results/crc_16_32_4.txt  ././../../MiBench/crc ././../../MiBench/Benchmarks/telecomm/adpcm/data/large.pcm
echo Starting crc benchmark with Number of sets=16 Line Size=64 and Associativity of 1. Total Cache size is 1024 Bytes
././../../simplesim-3.0/sim-outorder -cache:il1 il1:8:64:4:l -cache:dl1 dl1:16:64:1:l -cache:il1lat 1 -cache:dl1lat 1 -mem:lat 80 2 -issue:inorder -redir:sim Results/crc_16_64_1.txt  ././../../MiBench/crc ././../../MiBench/Benchmarks/telecomm/adpcm/data/large.pcm
echo Starting crc benchmark with Number of sets=16 Line Size=64 and Associativity of 2. Total Cache size is 1024 Bytes
././../../simplesim-3.0/sim-outorder -cache:il1 il1:8:64:4:l -cache:dl1 dl1:16:64:2:l -cache:il1lat 1 -cache:dl1lat 1 -mem:lat 80 2 -issue:inorder -redir:sim Results/crc_16_64_2.txt  ././../../MiBench/crc ././../../MiBench/Benchmarks/telecomm/adpcm/data/large.pcm
echo Starting crc benchmark with Number of sets=16 Line Size=64 and Associativity of 4. Total Cache size is 1024 Bytes
././../../simplesim-3.0/sim-outorder -cache:il1 il1:8:64:4:l -cache:dl1 dl1:16:64:4:l -cache:il1lat 1 -cache:dl1lat 1 -mem:lat 80 2 -issue:inorder -redir:sim Results/crc_16_64_4.txt  ././../../MiBench/crc ././../../MiBench/Benchmarks/telecomm/adpcm/data/large.pcm
echo Starting crc benchmark with Number of sets=32 Line Size=16 and Associativity of 1. Total Cache size is 512 Bytes
././../../simplesim-3.0/sim-outorder -cache:il1 il1:8:64:4:l -cache:dl1 dl1:32:16:1:l -cache:il1lat 1 -cache:dl1lat 1 -mem:lat 80 2 -issue:inorder -redir:sim Results/crc_32_16_1.txt  ././../../MiBench/crc ././../../MiBench/Benchmarks/telecomm/adpcm/data/large.pcm
echo Starting crc benchmark with Number of sets=32 Line Size=16 and Associativity of 2. Total Cache size is 512 Bytes
././../../simplesim-3.0/sim-outorder -cache:il1 il1:8:64:4:l -cache:dl1 dl1:32:16:2:l -cache:il1lat 1 -cache:dl1lat 1 -mem:lat 80 2 -issue:inorder -redir:sim Results/crc_32_16_2.txt  ././../../MiBench/crc ././../../MiBench/Benchmarks/telecomm/adpcm/data/large.pcm
echo Starting crc benchmark with Number of sets=32 Line Size=16 and Associativity of 4. Total Cache size is 512 Bytes
././../../simplesim-3.0/sim-outorder -cache:il1 il1:8:64:4:l -cache:dl1 dl1:32:16:4:l -cache:il1lat 1 -cache:dl1lat 1 -mem:lat 80 2 -issue:inorder -redir:sim Results/crc_32_16_4.txt  ././../../MiBench/crc ././../../MiBench/Benchmarks/telecomm/adpcm/data/large.pcm
echo Starting crc benchmark with Number of sets=32 Line Size=32 and Associativity of 1. Total Cache size is 1024 Bytes
././../../simplesim-3.0/sim-outorder -cache:il1 il1:8:64:4:l -cache:dl1 dl1:32:32:1:l -cache:il1lat 1 -cache:dl1lat 1 -mem:lat 80 2 -issue:inorder -redir:sim Results/crc_32_32_1.txt  ././../../MiBench/crc ././../../MiBench/Benchmarks/telecomm/adpcm/data/large.pcm
echo Starting crc benchmark with Number of sets=32 Line Size=32 and Associativity of 2. Total Cache size is 1024 Bytes
././../../simplesim-3.0/sim-outorder -cache:il1 il1:8:64:4:l -cache:dl1 dl1:32:32:2:l -cache:il1lat 1 -cache:dl1lat 1 -mem:lat 80 2 -issue:inorder -redir:sim Results/crc_32_32_2.txt  ././../../MiBench/crc ././../../MiBench/Benchmarks/telecomm/adpcm/data/large.pcm
echo Starting crc benchmark with Number of sets=32 Line Size=32 and Associativity of 4. Total Cache size is 1024 Bytes
././../../simplesim-3.0/sim-outorder -cache:il1 il1:8:64:4:l -cache:dl1 dl1:32:32:4:l -cache:il1lat 1 -cache:dl1lat 1 -mem:lat 80 2 -issue:inorder -redir:sim Results/crc_32_32_4.txt  ././../../MiBench/crc ././../../MiBench/Benchmarks/telecomm/adpcm/data/large.pcm
echo Starting crc benchmark with Number of sets=32 Line Size=64 and Associativity of 1. Total Cache size is 2048 Bytes
././../../simplesim-3.0/sim-outorder -cache:il1 il1:8:64:4:l -cache:dl1 dl1:32:64:1:l -cache:il1lat 1 -cache:dl1lat 1 -mem:lat 80 2 -issue:inorder -redir:sim Results/crc_32_64_1.txt  ././../../MiBench/crc ././../../MiBench/Benchmarks/telecomm/adpcm/data/large.pcm
echo Starting crc benchmark with Number of sets=32 Line Size=64 and Associativity of 2. Total Cache size is 2048 Bytes
././../../simplesim-3.0/sim-outorder -cache:il1 il1:8:64:4:l -cache:dl1 dl1:32:64:2:l -cache:il1lat 1 -cache:dl1lat 1 -mem:lat 80 2 -issue:inorder -redir:sim Results/crc_32_64_2.txt  ././../../MiBench/crc ././../../MiBench/Benchmarks/telecomm/adpcm/data/large.pcm
echo Starting crc benchmark with Number of sets=32 Line Size=64 and Associativity of 4. Total Cache size is 2048 Bytes
././../../simplesim-3.0/sim-outorder -cache:il1 il1:8:64:4:l -cache:dl1 dl1:32:64:4:l -cache:il1lat 1 -cache:dl1lat 1 -mem:lat 80 2 -issue:inorder -redir:sim Results/crc_32_64_4.txt  ././../../MiBench/crc ././../../MiBench/Benchmarks/telecomm/adpcm/data/large.pcm
echo Starting crc benchmark with Number of sets=64 Line Size=16 and Associativity of 1. Total Cache size is 1024 Bytes
././../../simplesim-3.0/sim-outorder -cache:il1 il1:8:64:4:l -cache:dl1 dl1:64:16:1:l -cache:il1lat 1 -cache:dl1lat 1 -mem:lat 80 2 -issue:inorder -redir:sim Results/crc_64_16_1.txt  ././../../MiBench/crc ././../../MiBench/Benchmarks/telecomm/adpcm/data/large.pcm
echo Starting crc benchmark with Number of sets=64 Line Size=16 and Associativity of 2. Total Cache size is 1024 Bytes
././../../simplesim-3.0/sim-outorder -cache:il1 il1:8:64:4:l -cache:dl1 dl1:64:16:2:l -cache:il1lat 1 -cache:dl1lat 1 -mem:lat 80 2 -issue:inorder -redir:sim Results/crc_64_16_2.txt  ././../../MiBench/crc ././../../MiBench/Benchmarks/telecomm/adpcm/data/large.pcm
echo Starting crc benchmark with Number of sets=64 Line Size=16 and Associativity of 4. Total Cache size is 1024 Bytes
././../../simplesim-3.0/sim-outorder -cache:il1 il1:8:64:4:l -cache:dl1 dl1:64:16:4:l -cache:il1lat 1 -cache:dl1lat 1 -mem:lat 80 2 -issue:inorder -redir:sim Results/crc_64_16_4.txt  ././../../MiBench/crc ././../../MiBench/Benchmarks/telecomm/adpcm/data/large.pcm
echo Starting crc benchmark with Number of sets=64 Line Size=32 and Associativity of 1. Total Cache size is 2048 Bytes
././../../simplesim-3.0/sim-outorder -cache:il1 il1:8:64:4:l -cache:dl1 dl1:64:32:1:l -cache:il1lat 1 -cache:dl1lat 1 -mem:lat 80 2 -issue:inorder -redir:sim Results/crc_64_32_1.txt  ././../../MiBench/crc ././../../MiBench/Benchmarks/telecomm/adpcm/data/large.pcm
echo Starting crc benchmark with Number of sets=64 Line Size=32 and Associativity of 2. Total Cache size is 2048 Bytes
././../../simplesim-3.0/sim-outorder -cache:il1 il1:8:64:4:l -cache:dl1 dl1:64:32:2:l -cache:il1lat 1 -cache:dl1lat 1 -mem:lat 80 2 -issue:inorder -redir:sim Results/crc_64_32_2.txt  ././../../MiBench/crc ././../../MiBench/Benchmarks/telecomm/adpcm/data/large.pcm
echo Starting crc benchmark with Number of sets=64 Line Size=32 and Associativity of 4. Total Cache size is 2048 Bytes
././../../simplesim-3.0/sim-outorder -cache:il1 il1:8:64:4:l -cache:dl1 dl1:64:32:4:l -cache:il1lat 1 -cache:dl1lat 1 -mem:lat 80 2 -issue:inorder -redir:sim Results/crc_64_32_4.txt  ././../../MiBench/crc ././../../MiBench/Benchmarks/telecomm/adpcm/data/large.pcm
echo Starting crc benchmark with Number of sets=64 Line Size=64 and Associativity of 1. Total Cache size is 4096 Bytes
././../../simplesim-3.0/sim-outorder -cache:il1 il1:8:64:4:l -cache:dl1 dl1:64:64:1:l -cache:il1lat 1 -cache:dl1lat 1 -mem:lat 80 2 -issue:inorder -redir:sim Results/crc_64_64_1.txt  ././../../MiBench/crc ././../../MiBench/Benchmarks/telecomm/adpcm/data/large.pcm
echo Starting crc benchmark with Number of sets=64 Line Size=64 and Associativity of 2. Total Cache size is 4096 Bytes
././../../simplesim-3.0/sim-outorder -cache:il1 il1:8:64:4:l -cache:dl1 dl1:64:64:2:l -cache:il1lat 1 -cache:dl1lat 1 -mem:lat 80 2 -issue:inorder -redir:sim Results/crc_64_64_2.txt  ././../../MiBench/crc ././../../MiBench/Benchmarks/telecomm/adpcm/data/large.pcm
echo Starting crc benchmark with Number of sets=64 Line Size=64 and Associativity of 4. Total Cache size is 4096 Bytes
././../../simplesim-3.0/sim-outorder -cache:il1 il1:8:64:4:l -cache:dl1 dl1:64:64:4:l -cache:il1lat 1 -cache:dl1lat 1 -mem:lat 80 2 -issue:inorder -redir:sim Results/crc_64_64_4.txt  ././../../MiBench/crc ././../../MiBench/Benchmarks/telecomm/adpcm/data/large.pcm
echo Starting crc benchmark with Number of sets=128 Line Size=16 and Associativity of 1. Total Cache size is 2048 Bytes
././../../simplesim-3.0/sim-outorder -cache:il1 il1:8:64:4:l -cache:dl1 dl1:128:16:1:l -cache:il1lat 1 -cache:dl1lat 1 -mem:lat 80 2 -issue:inorder -redir:sim Results/crc_128_16_1.txt  ././../../MiBench/crc ././../../MiBench/Benchmarks/telecomm/adpcm/data/large.pcm
echo Starting crc benchmark with Number of sets=128 Line Size=16 and Associativity of 2. Total Cache size is 2048 Bytes
././../../simplesim-3.0/sim-outorder -cache:il1 il1:8:64:4:l -cache:dl1 dl1:128:16:2:l -cache:il1lat 1 -cache:dl1lat 1 -mem:lat 80 2 -issue:inorder -redir:sim Results/crc_128_16_2.txt  ././../../MiBench/crc ././../../MiBench/Benchmarks/telecomm/adpcm/data/large.pcm
echo Starting crc benchmark with Number of sets=128 Line Size=16 and Associativity of 4. Total Cache size is 2048 Bytes
././../../simplesim-3.0/sim-outorder -cache:il1 il1:8:64:4:l -cache:dl1 dl1:128:16:4:l -cache:il1lat 1 -cache:dl1lat 1 -mem:lat 80 2 -issue:inorder -redir:sim Results/crc_128_16_4.txt  ././../../MiBench/crc ././../../MiBench/Benchmarks/telecomm/adpcm/data/large.pcm
echo Starting crc benchmark with Number of sets=128 Line Size=32 and Associativity of 1. Total Cache size is 4096 Bytes
././../../simplesim-3.0/sim-outorder -cache:il1 il1:8:64:4:l -cache:dl1 dl1:128:32:1:l -cache:il1lat 1 -cache:dl1lat 1 -mem:lat 80 2 -issue:inorder -redir:sim Results/crc_128_32_1.txt  ././../../MiBench/crc ././../../MiBench/Benchmarks/telecomm/adpcm/data/large.pcm
echo Starting crc benchmark with Number of sets=128 Line Size=32 and Associativity of 2. Total Cache size is 4096 Bytes
././../../simplesim-3.0/sim-outorder -cache:il1 il1:8:64:4:l -cache:dl1 dl1:128:32:2:l -cache:il1lat 1 -cache:dl1lat 1 -mem:lat 80 2 -issue:inorder -redir:sim Results/crc_128_32_2.txt  ././../../MiBench/crc ././../../MiBench/Benchmarks/telecomm/adpcm/data/large.pcm
echo Starting crc benchmark with Number of sets=128 Line Size=32 and Associativity of 4. Total Cache size is 4096 Bytes
././../../simplesim-3.0/sim-outorder -cache:il1 il1:8:64:4:l -cache:dl1 dl1:128:32:4:l -cache:il1lat 1 -cache:dl1lat 1 -mem:lat 80 2 -issue:inorder -redir:sim Results/crc_128_32_4.txt  ././../../MiBench/crc ././../../MiBench/Benchmarks/telecomm/adpcm/data/large.pcm
echo Starting crc benchmark with Number of sets=128 Line Size=64 and Associativity of 1. Total Cache size is 8192 Bytes
././../../simplesim-3.0/sim-outorder -cache:il1 il1:8:64:4:l -cache:dl1 dl1:128:64:1:l -cache:il1lat 1 -cache:dl1lat 1 -mem:lat 80 2 -issue:inorder -redir:sim Results/crc_128_64_1.txt  ././../../MiBench/crc ././../../MiBench/Benchmarks/telecomm/adpcm/data/large.pcm
echo Starting crc benchmark with Number of sets=128 Line Size=64 and Associativity of 2. Total Cache size is 8192 Bytes
././../../simplesim-3.0/sim-outorder -cache:il1 il1:8:64:4:l -cache:dl1 dl1:128:64:2:l -cache:il1lat 1 -cache:dl1lat 1 -mem:lat 80 2 -issue:inorder -redir:sim Results/crc_128_64_2.txt  ././../../MiBench/crc ././../../MiBench/Benchmarks/telecomm/adpcm/data/large.pcm
echo Starting crc benchmark with Number of sets=128 Line Size=64 and Associativity of 4. Total Cache size is 8192 Bytes
././../../simplesim-3.0/sim-outorder -cache:il1 il1:8:64:4:l -cache:dl1 dl1:128:64:4:l -cache:il1lat 1 -cache:dl1lat 1 -mem:lat 80 2 -issue:inorder -redir:sim Results/crc_128_64_4.txt  ././../../MiBench/crc ././../../MiBench/Benchmarks/telecomm/adpcm/data/large.pcm
echo Starting crc benchmark with Number of sets=256 Line Size=16 and Associativity of 1. Total Cache size is 4096 Bytes
././../../simplesim-3.0/sim-outorder -cache:il1 il1:8:64:4:l -cache:dl1 dl1:256:16:1:l -cache:il1lat 1 -cache:dl1lat 1 -mem:lat 80 2 -issue:inorder -redir:sim Results/crc_256_16_1.txt  ././../../MiBench/crc ././../../MiBench/Benchmarks/telecomm/adpcm/data/large.pcm
echo Starting crc benchmark with Number of sets=256 Line Size=16 and Associativity of 2. Total Cache size is 4096 Bytes
././../../simplesim-3.0/sim-outorder -cache:il1 il1:8:64:4:l -cache:dl1 dl1:256:16:2:l -cache:il1lat 1 -cache:dl1lat 1 -mem:lat 80 2 -issue:inorder -redir:sim Results/crc_256_16_2.txt  ././../../MiBench/crc ././../../MiBench/Benchmarks/telecomm/adpcm/data/large.pcm
echo Starting crc benchmark with Number of sets=256 Line Size=16 and Associativity of 4. Total Cache size is 4096 Bytes
././../../simplesim-3.0/sim-outorder -cache:il1 il1:8:64:4:l -cache:dl1 dl1:256:16:4:l -cache:il1lat 1 -cache:dl1lat 1 -mem:lat 80 2 -issue:inorder -redir:sim Results/crc_256_16_4.txt  ././../../MiBench/crc ././../../MiBench/Benchmarks/telecomm/adpcm/data/large.pcm
echo Starting crc benchmark with Number of sets=256 Line Size=32 and Associativity of 1. Total Cache size is 8192 Bytes
././../../simplesim-3.0/sim-outorder -cache:il1 il1:8:64:4:l -cache:dl1 dl1:256:32:1:l -cache:il1lat 1 -cache:dl1lat 1 -mem:lat 80 2 -issue:inorder -redir:sim Results/crc_256_32_1.txt  ././../../MiBench/crc ././../../MiBench/Benchmarks/telecomm/adpcm/data/large.pcm
echo Starting crc benchmark with Number of sets=256 Line Size=32 and Associativity of 2. Total Cache size is 8192 Bytes
././../../simplesim-3.0/sim-outorder -cache:il1 il1:8:64:4:l -cache:dl1 dl1:256:32:2:l -cache:il1lat 1 -cache:dl1lat 1 -mem:lat 80 2 -issue:inorder -redir:sim Results/crc_256_32_2.txt  ././../../MiBench/crc ././../../MiBench/Benchmarks/telecomm/adpcm/data/large.pcm
echo Starting crc benchmark with Number of sets=256 Line Size=32 and Associativity of 4. Total Cache size is 8192 Bytes
././../../simplesim-3.0/sim-outorder -cache:il1 il1:8:64:4:l -cache:dl1 dl1:256:32:4:l -cache:il1lat 1 -cache:dl1lat 1 -mem:lat 80 2 -issue:inorder -redir:sim Results/crc_256_32_4.txt  ././../../MiBench/crc ././../../MiBench/Benchmarks/telecomm/adpcm/data/large.pcm
echo Starting crc benchmark with Number of sets=256 Line Size=64 and Associativity of 1. Total Cache size is 16384 Bytes
././../../simplesim-3.0/sim-outorder -cache:il1 il1:8:64:4:l -cache:dl1 dl1:256:64:1:l -cache:il1lat 1 -cache:dl1lat 1 -mem:lat 80 2 -issue:inorder -redir:sim Results/crc_256_64_1.txt  ././../../MiBench/crc ././../../MiBench/Benchmarks/telecomm/adpcm/data/large.pcm
echo Starting crc benchmark with Number of sets=256 Line Size=64 and Associativity of 2. Total Cache size is 16384 Bytes
././../../simplesim-3.0/sim-outorder -cache:il1 il1:8:64:4:l -cache:dl1 dl1:256:64:2:l -cache:il1lat 1 -cache:dl1lat 1 -mem:lat 80 2 -issue:inorder -redir:sim Results/crc_256_64_2.txt  ././../../MiBench/crc ././../../MiBench/Benchmarks/telecomm/adpcm/data/large.pcm
echo Starting crc benchmark with Number of sets=256 Line Size=64 and Associativity of 4. Total Cache size is 16384 Bytes
././../../simplesim-3.0/sim-outorder -cache:il1 il1:8:64:4:l -cache:dl1 dl1:256:64:4:l -cache:il1lat 1 -cache:dl1lat 1 -mem:lat 80 2 -issue:inorder -redir:sim Results/crc_256_64_4.txt  ././../../MiBench/crc ././../../MiBench/Benchmarks/telecomm/adpcm/data/large.pcm
echo Starting crc benchmark with Number of sets=512 Line Size=16 and Associativity of 1. Total Cache size is 8192 Bytes
././../../simplesim-3.0/sim-outorder -cache:il1 il1:8:64:4:l -cache:dl1 dl1:512:16:1:l -cache:il1lat 1 -cache:dl1lat 1 -mem:lat 80 2 -issue:inorder -redir:sim Results/crc_512_16_1.txt  ././../../MiBench/crc ././../../MiBench/Benchmarks/telecomm/adpcm/data/large.pcm
echo Starting crc benchmark with Number of sets=512 Line Size=16 and Associativity of 2. Total Cache size is 8192 Bytes
././../../simplesim-3.0/sim-outorder -cache:il1 il1:8:64:4:l -cache:dl1 dl1:512:16:2:l -cache:il1lat 1 -cache:dl1lat 1 -mem:lat 80 2 -issue:inorder -redir:sim Results/crc_512_16_2.txt  ././../../MiBench/crc ././../../MiBench/Benchmarks/telecomm/adpcm/data/large.pcm
echo Starting crc benchmark with Number of sets=512 Line Size=16 and Associativity of 4. Total Cache size is 8192 Bytes
././../../simplesim-3.0/sim-outorder -cache:il1 il1:8:64:4:l -cache:dl1 dl1:512:16:4:l -cache:il1lat 1 -cache:dl1lat 1 -mem:lat 80 2 -issue:inorder -redir:sim Results/crc_512_16_4.txt  ././../../MiBench/crc ././../../MiBench/Benchmarks/telecomm/adpcm/data/large.pcm
echo Starting crc benchmark with Number of sets=512 Line Size=32 and Associativity of 1. Total Cache size is 16384 Bytes
././../../simplesim-3.0/sim-outorder -cache:il1 il1:8:64:4:l -cache:dl1 dl1:512:32:1:l -cache:il1lat 1 -cache:dl1lat 1 -mem:lat 80 2 -issue:inorder -redir:sim Results/crc_512_32_1.txt  ././../../MiBench/crc ././../../MiBench/Benchmarks/telecomm/adpcm/data/large.pcm
echo Starting crc benchmark with Number of sets=512 Line Size=32 and Associativity of 2. Total Cache size is 16384 Bytes
././../../simplesim-3.0/sim-outorder -cache:il1 il1:8:64:4:l -cache:dl1 dl1:512:32:2:l -cache:il1lat 1 -cache:dl1lat 1 -mem:lat 80 2 -issue:inorder -redir:sim Results/crc_512_32_2.txt  ././../../MiBench/crc ././../../MiBench/Benchmarks/telecomm/adpcm/data/large.pcm
echo Starting crc benchmark with Number of sets=512 Line Size=32 and Associativity of 4. Total Cache size is 16384 Bytes
././../../simplesim-3.0/sim-outorder -cache:il1 il1:8:64:4:l -cache:dl1 dl1:512:32:4:l -cache:il1lat 1 -cache:dl1lat 1 -mem:lat 80 2 -issue:inorder -redir:sim Results/crc_512_32_4.txt  ././../../MiBench/crc ././../../MiBench/Benchmarks/telecomm/adpcm/data/large.pcm
echo Starting crc benchmark with Number of sets=512 Line Size=64 and Associativity of 1. Total Cache size is 32768 Bytes
././../../simplesim-3.0/sim-outorder -cache:il1 il1:8:64:4:l -cache:dl1 dl1:512:64:1:l -cache:il1lat 1 -cache:dl1lat 1 -mem:lat 80 2 -issue:inorder -redir:sim Results/crc_512_64_1.txt  ././../../MiBench/crc ././../../MiBench/Benchmarks/telecomm/adpcm/data/large.pcm
echo Starting crc benchmark with Number of sets=512 Line Size=64 and Associativity of 2. Total Cache size is 32768 Bytes
././../../simplesim-3.0/sim-outorder -cache:il1 il1:8:64:4:l -cache:dl1 dl1:512:64:2:l -cache:il1lat 1 -cache:dl1lat 1 -mem:lat 80 2 -issue:inorder -redir:sim Results/crc_512_64_2.txt  ././../../MiBench/crc ././../../MiBench/Benchmarks/telecomm/adpcm/data/large.pcm
echo Starting crc benchmark with Number of sets=512 Line Size=64 and Associativity of 4. Total Cache size is 32768 Bytes
././../../simplesim-3.0/sim-outorder -cache:il1 il1:8:64:4:l -cache:dl1 dl1:512:64:4:l -cache:il1lat 1 -cache:dl1lat 1 -mem:lat 80 2 -issue:inorder -redir:sim Results/crc_512_64_4.txt  ././../../MiBench/crc ././../../MiBench/Benchmarks/telecomm/adpcm/data/large.pcm
echo -e '[0;31m#########################Starting Benchmark (dijkstrasmall)#########################[0m'
echo Starting dijkstrasmall benchmark with Number of sets=8 Line Size=16 and Associativity of 1. Total Cache size is 128 Bytes
././../../simplesim-3.0/sim-outorder -cache:il1 il1:8:64:4:l -cache:dl1 dl1:8:16:1:l -cache:il1lat 1 -cache:dl1lat 1 -mem:lat 80 2 -issue:inorder -redir:sim Results/dijkstrasmall_8_16_1.txt  ././../../MiBench/dijkstra_small ././../../MiBench/Benchmarks/network/dijkstra/input.dat
echo Starting dijkstrasmall benchmark with Number of sets=8 Line Size=16 and Associativity of 2. Total Cache size is 128 Bytes
././../../simplesim-3.0/sim-outorder -cache:il1 il1:8:64:4:l -cache:dl1 dl1:8:16:2:l -cache:il1lat 1 -cache:dl1lat 1 -mem:lat 80 2 -issue:inorder -redir:sim Results/dijkstrasmall_8_16_2.txt  ././../../MiBench/dijkstra_small ././../../MiBench/Benchmarks/network/dijkstra/input.dat
echo Starting dijkstrasmall benchmark with Number of sets=8 Line Size=16 and Associativity of 4. Total Cache size is 128 Bytes
././../../simplesim-3.0/sim-outorder -cache:il1 il1:8:64:4:l -cache:dl1 dl1:8:16:4:l -cache:il1lat 1 -cache:dl1lat 1 -mem:lat 80 2 -issue:inorder -redir:sim Results/dijkstrasmall_8_16_4.txt  ././../../MiBench/dijkstra_small ././../../MiBench/Benchmarks/network/dijkstra/input.dat
echo Starting dijkstrasmall benchmark with Number of sets=8 Line Size=32 and Associativity of 1. Total Cache size is 256 Bytes
././../../simplesim-3.0/sim-outorder -cache:il1 il1:8:64:4:l -cache:dl1 dl1:8:32:1:l -cache:il1lat 1 -cache:dl1lat 1 -mem:lat 80 2 -issue:inorder -redir:sim Results/dijkstrasmall_8_32_1.txt  ././../../MiBench/dijkstra_small ././../../MiBench/Benchmarks/network/dijkstra/input.dat
echo Starting dijkstrasmall benchmark with Number of sets=8 Line Size=32 and Associativity of 2. Total Cache size is 256 Bytes
././../../simplesim-3.0/sim-outorder -cache:il1 il1:8:64:4:l -cache:dl1 dl1:8:32:2:l -cache:il1lat 1 -cache:dl1lat 1 -mem:lat 80 2 -issue:inorder -redir:sim Results/dijkstrasmall_8_32_2.txt  ././../../MiBench/dijkstra_small ././../../MiBench/Benchmarks/network/dijkstra/input.dat
echo Starting dijkstrasmall benchmark with Number of sets=8 Line Size=32 and Associativity of 4. Total Cache size is 256 Bytes
././../../simplesim-3.0/sim-outorder -cache:il1 il1:8:64:4:l -cache:dl1 dl1:8:32:4:l -cache:il1lat 1 -cache:dl1lat 1 -mem:lat 80 2 -issue:inorder -redir:sim Results/dijkstrasmall_8_32_4.txt  ././../../MiBench/dijkstra_small ././../../MiBench/Benchmarks/network/dijkstra/input.dat
echo Starting dijkstrasmall benchmark with Number of sets=8 Line Size=64 and Associativity of 1. Total Cache size is 512 Bytes
././../../simplesim-3.0/sim-outorder -cache:il1 il1:8:64:4:l -cache:dl1 dl1:8:64:1:l -cache:il1lat 1 -cache:dl1lat 1 -mem:lat 80 2 -issue:inorder -redir:sim Results/dijkstrasmall_8_64_1.txt  ././../../MiBench/dijkstra_small ././../../MiBench/Benchmarks/network/dijkstra/input.dat
echo Starting dijkstrasmall benchmark with Number of sets=8 Line Size=64 and Associativity of 2. Total Cache size is 512 Bytes
././../../simplesim-3.0/sim-outorder -cache:il1 il1:8:64:4:l -cache:dl1 dl1:8:64:2:l -cache:il1lat 1 -cache:dl1lat 1 -mem:lat 80 2 -issue:inorder -redir:sim Results/dijkstrasmall_8_64_2.txt  ././../../MiBench/dijkstra_small ././../../MiBench/Benchmarks/network/dijkstra/input.dat
echo Starting dijkstrasmall benchmark with Number of sets=8 Line Size=64 and Associativity of 4. Total Cache size is 512 Bytes
././../../simplesim-3.0/sim-outorder -cache:il1 il1:8:64:4:l -cache:dl1 dl1:8:64:4:l -cache:il1lat 1 -cache:dl1lat 1 -mem:lat 80 2 -issue:inorder -redir:sim Results/dijkstrasmall_8_64_4.txt  ././../../MiBench/dijkstra_small ././../../MiBench/Benchmarks/network/dijkstra/input.dat
echo Starting dijkstrasmall benchmark with Number of sets=16 Line Size=16 and Associativity of 1. Total Cache size is 256 Bytes
././../../simplesim-3.0/sim-outorder -cache:il1 il1:8:64:4:l -cache:dl1 dl1:16:16:1:l -cache:il1lat 1 -cache:dl1lat 1 -mem:lat 80 2 -issue:inorder -redir:sim Results/dijkstrasmall_16_16_1.txt  ././../../MiBench/dijkstra_small ././../../MiBench/Benchmarks/network/dijkstra/input.dat
echo Starting dijkstrasmall benchmark with Number of sets=16 Line Size=16 and Associativity of 2. Total Cache size is 256 Bytes
././../../simplesim-3.0/sim-outorder -cache:il1 il1:8:64:4:l -cache:dl1 dl1:16:16:2:l -cache:il1lat 1 -cache:dl1lat 1 -mem:lat 80 2 -issue:inorder -redir:sim Results/dijkstrasmall_16_16_2.txt  ././../../MiBench/dijkstra_small ././../../MiBench/Benchmarks/network/dijkstra/input.dat
echo Starting dijkstrasmall benchmark with Number of sets=16 Line Size=16 and Associativity of 4. Total Cache size is 256 Bytes
././../../simplesim-3.0/sim-outorder -cache:il1 il1:8:64:4:l -cache:dl1 dl1:16:16:4:l -cache:il1lat 1 -cache:dl1lat 1 -mem:lat 80 2 -issue:inorder -redir:sim Results/dijkstrasmall_16_16_4.txt  ././../../MiBench/dijkstra_small ././../../MiBench/Benchmarks/network/dijkstra/input.dat
echo Starting dijkstrasmall benchmark with Number of sets=16 Line Size=32 and Associativity of 1. Total Cache size is 512 Bytes
././../../simplesim-3.0/sim-outorder -cache:il1 il1:8:64:4:l -cache:dl1 dl1:16:32:1:l -cache:il1lat 1 -cache:dl1lat 1 -mem:lat 80 2 -issue:inorder -redir:sim Results/dijkstrasmall_16_32_1.txt  ././../../MiBench/dijkstra_small ././../../MiBench/Benchmarks/network/dijkstra/input.dat
echo Starting dijkstrasmall benchmark with Number of sets=16 Line Size=32 and Associativity of 2. Total Cache size is 512 Bytes
././../../simplesim-3.0/sim-outorder -cache:il1 il1:8:64:4:l -cache:dl1 dl1:16:32:2:l -cache:il1lat 1 -cache:dl1lat 1 -mem:lat 80 2 -issue:inorder -redir:sim Results/dijkstrasmall_16_32_2.txt  ././../../MiBench/dijkstra_small ././../../MiBench/Benchmarks/network/dijkstra/input.dat
echo Starting dijkstrasmall benchmark with Number of sets=16 Line Size=32 and Associativity of 4. Total Cache size is 512 Bytes
././../../simplesim-3.0/sim-outorder -cache:il1 il1:8:64:4:l -cache:dl1 dl1:16:32:4:l -cache:il1lat 1 -cache:dl1lat 1 -mem:lat 80 2 -issue:inorder -redir:sim Results/dijkstrasmall_16_32_4.txt  ././../../MiBench/dijkstra_small ././../../MiBench/Benchmarks/network/dijkstra/input.dat
echo Starting dijkstrasmall benchmark with Number of sets=16 Line Size=64 and Associativity of 1. Total Cache size is 1024 Bytes
././../../simplesim-3.0/sim-outorder -cache:il1 il1:8:64:4:l -cache:dl1 dl1:16:64:1:l -cache:il1lat 1 -cache:dl1lat 1 -mem:lat 80 2 -issue:inorder -redir:sim Results/dijkstrasmall_16_64_1.txt  ././../../MiBench/dijkstra_small ././../../MiBench/Benchmarks/network/dijkstra/input.dat
echo Starting dijkstrasmall benchmark with Number of sets=16 Line Size=64 and Associativity of 2. Total Cache size is 1024 Bytes
././../../simplesim-3.0/sim-outorder -cache:il1 il1:8:64:4:l -cache:dl1 dl1:16:64:2:l -cache:il1lat 1 -cache:dl1lat 1 -mem:lat 80 2 -issue:inorder -redir:sim Results/dijkstrasmall_16_64_2.txt  ././../../MiBench/dijkstra_small ././../../MiBench/Benchmarks/network/dijkstra/input.dat
echo Starting dijkstrasmall benchmark with Number of sets=16 Line Size=64 and Associativity of 4. Total Cache size is 1024 Bytes
././../../simplesim-3.0/sim-outorder -cache:il1 il1:8:64:4:l -cache:dl1 dl1:16:64:4:l -cache:il1lat 1 -cache:dl1lat 1 -mem:lat 80 2 -issue:inorder -redir:sim Results/dijkstrasmall_16_64_4.txt  ././../../MiBench/dijkstra_small ././../../MiBench/Benchmarks/network/dijkstra/input.dat
echo Starting dijkstrasmall benchmark with Number of sets=32 Line Size=16 and Associativity of 1. Total Cache size is 512 Bytes
././../../simplesim-3.0/sim-outorder -cache:il1 il1:8:64:4:l -cache:dl1 dl1:32:16:1:l -cache:il1lat 1 -cache:dl1lat 1 -mem:lat 80 2 -issue:inorder -redir:sim Results/dijkstrasmall_32_16_1.txt  ././../../MiBench/dijkstra_small ././../../MiBench/Benchmarks/network/dijkstra/input.dat
echo Starting dijkstrasmall benchmark with Number of sets=32 Line Size=16 and Associativity of 2. Total Cache size is 512 Bytes
././../../simplesim-3.0/sim-outorder -cache:il1 il1:8:64:4:l -cache:dl1 dl1:32:16:2:l -cache:il1lat 1 -cache:dl1lat 1 -mem:lat 80 2 -issue:inorder -redir:sim Results/dijkstrasmall_32_16_2.txt  ././../../MiBench/dijkstra_small ././../../MiBench/Benchmarks/network/dijkstra/input.dat
echo Starting dijkstrasmall benchmark with Number of sets=32 Line Size=16 and Associativity of 4. Total Cache size is 512 Bytes
././../../simplesim-3.0/sim-outorder -cache:il1 il1:8:64:4:l -cache:dl1 dl1:32:16:4:l -cache:il1lat 1 -cache:dl1lat 1 -mem:lat 80 2 -issue:inorder -redir:sim Results/dijkstrasmall_32_16_4.txt  ././../../MiBench/dijkstra_small ././../../MiBench/Benchmarks/network/dijkstra/input.dat
echo Starting dijkstrasmall benchmark with Number of sets=32 Line Size=32 and Associativity of 1. Total Cache size is 1024 Bytes
././../../simplesim-3.0/sim-outorder -cache:il1 il1:8:64:4:l -cache:dl1 dl1:32:32:1:l -cache:il1lat 1 -cache:dl1lat 1 -mem:lat 80 2 -issue:inorder -redir:sim Results/dijkstrasmall_32_32_1.txt  ././../../MiBench/dijkstra_small ././../../MiBench/Benchmarks/network/dijkstra/input.dat
echo Starting dijkstrasmall benchmark with Number of sets=32 Line Size=32 and Associativity of 2. Total Cache size is 1024 Bytes
././../../simplesim-3.0/sim-outorder -cache:il1 il1:8:64:4:l -cache:dl1 dl1:32:32:2:l -cache:il1lat 1 -cache:dl1lat 1 -mem:lat 80 2 -issue:inorder -redir:sim Results/dijkstrasmall_32_32_2.txt  ././../../MiBench/dijkstra_small ././../../MiBench/Benchmarks/network/dijkstra/input.dat
echo Starting dijkstrasmall benchmark with Number of sets=32 Line Size=32 and Associativity of 4. Total Cache size is 1024 Bytes
././../../simplesim-3.0/sim-outorder -cache:il1 il1:8:64:4:l -cache:dl1 dl1:32:32:4:l -cache:il1lat 1 -cache:dl1lat 1 -mem:lat 80 2 -issue:inorder -redir:sim Results/dijkstrasmall_32_32_4.txt  ././../../MiBench/dijkstra_small ././../../MiBench/Benchmarks/network/dijkstra/input.dat
echo Starting dijkstrasmall benchmark with Number of sets=32 Line Size=64 and Associativity of 1. Total Cache size is 2048 Bytes
././../../simplesim-3.0/sim-outorder -cache:il1 il1:8:64:4:l -cache:dl1 dl1:32:64:1:l -cache:il1lat 1 -cache:dl1lat 1 -mem:lat 80 2 -issue:inorder -redir:sim Results/dijkstrasmall_32_64_1.txt  ././../../MiBench/dijkstra_small ././../../MiBench/Benchmarks/network/dijkstra/input.dat
echo Starting dijkstrasmall benchmark with Number of sets=32 Line Size=64 and Associativity of 2. Total Cache size is 2048 Bytes
././../../simplesim-3.0/sim-outorder -cache:il1 il1:8:64:4:l -cache:dl1 dl1:32:64:2:l -cache:il1lat 1 -cache:dl1lat 1 -mem:lat 80 2 -issue:inorder -redir:sim Results/dijkstrasmall_32_64_2.txt  ././../../MiBench/dijkstra_small ././../../MiBench/Benchmarks/network/dijkstra/input.dat
echo Starting dijkstrasmall benchmark with Number of sets=32 Line Size=64 and Associativity of 4. Total Cache size is 2048 Bytes
././../../simplesim-3.0/sim-outorder -cache:il1 il1:8:64:4:l -cache:dl1 dl1:32:64:4:l -cache:il1lat 1 -cache:dl1lat 1 -mem:lat 80 2 -issue:inorder -redir:sim Results/dijkstrasmall_32_64_4.txt  ././../../MiBench/dijkstra_small ././../../MiBench/Benchmarks/network/dijkstra/input.dat
echo Starting dijkstrasmall benchmark with Number of sets=64 Line Size=16 and Associativity of 1. Total Cache size is 1024 Bytes
././../../simplesim-3.0/sim-outorder -cache:il1 il1:8:64:4:l -cache:dl1 dl1:64:16:1:l -cache:il1lat 1 -cache:dl1lat 1 -mem:lat 80 2 -issue:inorder -redir:sim Results/dijkstrasmall_64_16_1.txt  ././../../MiBench/dijkstra_small ././../../MiBench/Benchmarks/network/dijkstra/input.dat
echo Starting dijkstrasmall benchmark with Number of sets=64 Line Size=16 and Associativity of 2. Total Cache size is 1024 Bytes
././../../simplesim-3.0/sim-outorder -cache:il1 il1:8:64:4:l -cache:dl1 dl1:64:16:2:l -cache:il1lat 1 -cache:dl1lat 1 -mem:lat 80 2 -issue:inorder -redir:sim Results/dijkstrasmall_64_16_2.txt  ././../../MiBench/dijkstra_small ././../../MiBench/Benchmarks/network/dijkstra/input.dat
echo Starting dijkstrasmall benchmark with Number of sets=64 Line Size=16 and Associativity of 4. Total Cache size is 1024 Bytes
././../../simplesim-3.0/sim-outorder -cache:il1 il1:8:64:4:l -cache:dl1 dl1:64:16:4:l -cache:il1lat 1 -cache:dl1lat 1 -mem:lat 80 2 -issue:inorder -redir:sim Results/dijkstrasmall_64_16_4.txt  ././../../MiBench/dijkstra_small ././../../MiBench/Benchmarks/network/dijkstra/input.dat
echo Starting dijkstrasmall benchmark with Number of sets=64 Line Size=32 and Associativity of 1. Total Cache size is 2048 Bytes
././../../simplesim-3.0/sim-outorder -cache:il1 il1:8:64:4:l -cache:dl1 dl1:64:32:1:l -cache:il1lat 1 -cache:dl1lat 1 -mem:lat 80 2 -issue:inorder -redir:sim Results/dijkstrasmall_64_32_1.txt  ././../../MiBench/dijkstra_small ././../../MiBench/Benchmarks/network/dijkstra/input.dat
echo Starting dijkstrasmall benchmark with Number of sets=64 Line Size=32 and Associativity of 2. Total Cache size is 2048 Bytes
././../../simplesim-3.0/sim-outorder -cache:il1 il1:8:64:4:l -cache:dl1 dl1:64:32:2:l -cache:il1lat 1 -cache:dl1lat 1 -mem:lat 80 2 -issue:inorder -redir:sim Results/dijkstrasmall_64_32_2.txt  ././../../MiBench/dijkstra_small ././../../MiBench/Benchmarks/network/dijkstra/input.dat
echo Starting dijkstrasmall benchmark with Number of sets=64 Line Size=32 and Associativity of 4. Total Cache size is 2048 Bytes
././../../simplesim-3.0/sim-outorder -cache:il1 il1:8:64:4:l -cache:dl1 dl1:64:32:4:l -cache:il1lat 1 -cache:dl1lat 1 -mem:lat 80 2 -issue:inorder -redir:sim Results/dijkstrasmall_64_32_4.txt  ././../../MiBench/dijkstra_small ././../../MiBench/Benchmarks/network/dijkstra/input.dat
echo Starting dijkstrasmall benchmark with Number of sets=64 Line Size=64 and Associativity of 1. Total Cache size is 4096 Bytes
././../../simplesim-3.0/sim-outorder -cache:il1 il1:8:64:4:l -cache:dl1 dl1:64:64:1:l -cache:il1lat 1 -cache:dl1lat 1 -mem:lat 80 2 -issue:inorder -redir:sim Results/dijkstrasmall_64_64_1.txt  ././../../MiBench/dijkstra_small ././../../MiBench/Benchmarks/network/dijkstra/input.dat
echo Starting dijkstrasmall benchmark with Number of sets=64 Line Size=64 and Associativity of 2. Total Cache size is 4096 Bytes
././../../simplesim-3.0/sim-outorder -cache:il1 il1:8:64:4:l -cache:dl1 dl1:64:64:2:l -cache:il1lat 1 -cache:dl1lat 1 -mem:lat 80 2 -issue:inorder -redir:sim Results/dijkstrasmall_64_64_2.txt  ././../../MiBench/dijkstra_small ././../../MiBench/Benchmarks/network/dijkstra/input.dat
echo Starting dijkstrasmall benchmark with Number of sets=64 Line Size=64 and Associativity of 4. Total Cache size is 4096 Bytes
././../../simplesim-3.0/sim-outorder -cache:il1 il1:8:64:4:l -cache:dl1 dl1:64:64:4:l -cache:il1lat 1 -cache:dl1lat 1 -mem:lat 80 2 -issue:inorder -redir:sim Results/dijkstrasmall_64_64_4.txt  ././../../MiBench/dijkstra_small ././../../MiBench/Benchmarks/network/dijkstra/input.dat
echo Starting dijkstrasmall benchmark with Number of sets=128 Line Size=16 and Associativity of 1. Total Cache size is 2048 Bytes
././../../simplesim-3.0/sim-outorder -cache:il1 il1:8:64:4:l -cache:dl1 dl1:128:16:1:l -cache:il1lat 1 -cache:dl1lat 1 -mem:lat 80 2 -issue:inorder -redir:sim Results/dijkstrasmall_128_16_1.txt  ././../../MiBench/dijkstra_small ././../../MiBench/Benchmarks/network/dijkstra/input.dat
echo Starting dijkstrasmall benchmark with Number of sets=128 Line Size=16 and Associativity of 2. Total Cache size is 2048 Bytes
././../../simplesim-3.0/sim-outorder -cache:il1 il1:8:64:4:l -cache:dl1 dl1:128:16:2:l -cache:il1lat 1 -cache:dl1lat 1 -mem:lat 80 2 -issue:inorder -redir:sim Results/dijkstrasmall_128_16_2.txt  ././../../MiBench/dijkstra_small ././../../MiBench/Benchmarks/network/dijkstra/input.dat
echo Starting dijkstrasmall benchmark with Number of sets=128 Line Size=16 and Associativity of 4. Total Cache size is 2048 Bytes
././../../simplesim-3.0/sim-outorder -cache:il1 il1:8:64:4:l -cache:dl1 dl1:128:16:4:l -cache:il1lat 1 -cache:dl1lat 1 -mem:lat 80 2 -issue:inorder -redir:sim Results/dijkstrasmall_128_16_4.txt  ././../../MiBench/dijkstra_small ././../../MiBench/Benchmarks/network/dijkstra/input.dat
echo Starting dijkstrasmall benchmark with Number of sets=128 Line Size=32 and Associativity of 1. Total Cache size is 4096 Bytes
././../../simplesim-3.0/sim-outorder -cache:il1 il1:8:64:4:l -cache:dl1 dl1:128:32:1:l -cache:il1lat 1 -cache:dl1lat 1 -mem:lat 80 2 -issue:inorder -redir:sim Results/dijkstrasmall_128_32_1.txt  ././../../MiBench/dijkstra_small ././../../MiBench/Benchmarks/network/dijkstra/input.dat
echo Starting dijkstrasmall benchmark with Number of sets=128 Line Size=32 and Associativity of 2. Total Cache size is 4096 Bytes
././../../simplesim-3.0/sim-outorder -cache:il1 il1:8:64:4:l -cache:dl1 dl1:128:32:2:l -cache:il1lat 1 -cache:dl1lat 1 -mem:lat 80 2 -issue:inorder -redir:sim Results/dijkstrasmall_128_32_2.txt  ././../../MiBench/dijkstra_small ././../../MiBench/Benchmarks/network/dijkstra/input.dat
echo Starting dijkstrasmall benchmark with Number of sets=128 Line Size=32 and Associativity of 4. Total Cache size is 4096 Bytes
././../../simplesim-3.0/sim-outorder -cache:il1 il1:8:64:4:l -cache:dl1 dl1:128:32:4:l -cache:il1lat 1 -cache:dl1lat 1 -mem:lat 80 2 -issue:inorder -redir:sim Results/dijkstrasmall_128_32_4.txt  ././../../MiBench/dijkstra_small ././../../MiBench/Benchmarks/network/dijkstra/input.dat
echo Starting dijkstrasmall benchmark with Number of sets=128 Line Size=64 and Associativity of 1. Total Cache size is 8192 Bytes
././../../simplesim-3.0/sim-outorder -cache:il1 il1:8:64:4:l -cache:dl1 dl1:128:64:1:l -cache:il1lat 1 -cache:dl1lat 1 -mem:lat 80 2 -issue:inorder -redir:sim Results/dijkstrasmall_128_64_1.txt  ././../../MiBench/dijkstra_small ././../../MiBench/Benchmarks/network/dijkstra/input.dat
echo Starting dijkstrasmall benchmark with Number of sets=128 Line Size=64 and Associativity of 2. Total Cache size is 8192 Bytes
././../../simplesim-3.0/sim-outorder -cache:il1 il1:8:64:4:l -cache:dl1 dl1:128:64:2:l -cache:il1lat 1 -cache:dl1lat 1 -mem:lat 80 2 -issue:inorder -redir:sim Results/dijkstrasmall_128_64_2.txt  ././../../MiBench/dijkstra_small ././../../MiBench/Benchmarks/network/dijkstra/input.dat
echo Starting dijkstrasmall benchmark with Number of sets=128 Line Size=64 and Associativity of 4. Total Cache size is 8192 Bytes
././../../simplesim-3.0/sim-outorder -cache:il1 il1:8:64:4:l -cache:dl1 dl1:128:64:4:l -cache:il1lat 1 -cache:dl1lat 1 -mem:lat 80 2 -issue:inorder -redir:sim Results/dijkstrasmall_128_64_4.txt  ././../../MiBench/dijkstra_small ././../../MiBench/Benchmarks/network/dijkstra/input.dat
echo Starting dijkstrasmall benchmark with Number of sets=256 Line Size=16 and Associativity of 1. Total Cache size is 4096 Bytes
././../../simplesim-3.0/sim-outorder -cache:il1 il1:8:64:4:l -cache:dl1 dl1:256:16:1:l -cache:il1lat 1 -cache:dl1lat 1 -mem:lat 80 2 -issue:inorder -redir:sim Results/dijkstrasmall_256_16_1.txt  ././../../MiBench/dijkstra_small ././../../MiBench/Benchmarks/network/dijkstra/input.dat
echo Starting dijkstrasmall benchmark with Number of sets=256 Line Size=16 and Associativity of 2. Total Cache size is 4096 Bytes
././../../simplesim-3.0/sim-outorder -cache:il1 il1:8:64:4:l -cache:dl1 dl1:256:16:2:l -cache:il1lat 1 -cache:dl1lat 1 -mem:lat 80 2 -issue:inorder -redir:sim Results/dijkstrasmall_256_16_2.txt  ././../../MiBench/dijkstra_small ././../../MiBench/Benchmarks/network/dijkstra/input.dat
echo Starting dijkstrasmall benchmark with Number of sets=256 Line Size=16 and Associativity of 4. Total Cache size is 4096 Bytes
././../../simplesim-3.0/sim-outorder -cache:il1 il1:8:64:4:l -cache:dl1 dl1:256:16:4:l -cache:il1lat 1 -cache:dl1lat 1 -mem:lat 80 2 -issue:inorder -redir:sim Results/dijkstrasmall_256_16_4.txt  ././../../MiBench/dijkstra_small ././../../MiBench/Benchmarks/network/dijkstra/input.dat
echo Starting dijkstrasmall benchmark with Number of sets=256 Line Size=32 and Associativity of 1. Total Cache size is 8192 Bytes
././../../simplesim-3.0/sim-outorder -cache:il1 il1:8:64:4:l -cache:dl1 dl1:256:32:1:l -cache:il1lat 1 -cache:dl1lat 1 -mem:lat 80 2 -issue:inorder -redir:sim Results/dijkstrasmall_256_32_1.txt  ././../../MiBench/dijkstra_small ././../../MiBench/Benchmarks/network/dijkstra/input.dat
echo Starting dijkstrasmall benchmark with Number of sets=256 Line Size=32 and Associativity of 2. Total Cache size is 8192 Bytes
././../../simplesim-3.0/sim-outorder -cache:il1 il1:8:64:4:l -cache:dl1 dl1:256:32:2:l -cache:il1lat 1 -cache:dl1lat 1 -mem:lat 80 2 -issue:inorder -redir:sim Results/dijkstrasmall_256_32_2.txt  ././../../MiBench/dijkstra_small ././../../MiBench/Benchmarks/network/dijkstra/input.dat
echo Starting dijkstrasmall benchmark with Number of sets=256 Line Size=32 and Associativity of 4. Total Cache size is 8192 Bytes
././../../simplesim-3.0/sim-outorder -cache:il1 il1:8:64:4:l -cache:dl1 dl1:256:32:4:l -cache:il1lat 1 -cache:dl1lat 1 -mem:lat 80 2 -issue:inorder -redir:sim Results/dijkstrasmall_256_32_4.txt  ././../../MiBench/dijkstra_small ././../../MiBench/Benchmarks/network/dijkstra/input.dat
echo Starting dijkstrasmall benchmark with Number of sets=256 Line Size=64 and Associativity of 1. Total Cache size is 16384 Bytes
././../../simplesim-3.0/sim-outorder -cache:il1 il1:8:64:4:l -cache:dl1 dl1:256:64:1:l -cache:il1lat 1 -cache:dl1lat 1 -mem:lat 80 2 -issue:inorder -redir:sim Results/dijkstrasmall_256_64_1.txt  ././../../MiBench/dijkstra_small ././../../MiBench/Benchmarks/network/dijkstra/input.dat
echo Starting dijkstrasmall benchmark with Number of sets=256 Line Size=64 and Associativity of 2. Total Cache size is 16384 Bytes
././../../simplesim-3.0/sim-outorder -cache:il1 il1:8:64:4:l -cache:dl1 dl1:256:64:2:l -cache:il1lat 1 -cache:dl1lat 1 -mem:lat 80 2 -issue:inorder -redir:sim Results/dijkstrasmall_256_64_2.txt  ././../../MiBench/dijkstra_small ././../../MiBench/Benchmarks/network/dijkstra/input.dat
echo Starting dijkstrasmall benchmark with Number of sets=256 Line Size=64 and Associativity of 4. Total Cache size is 16384 Bytes
././../../simplesim-3.0/sim-outorder -cache:il1 il1:8:64:4:l -cache:dl1 dl1:256:64:4:l -cache:il1lat 1 -cache:dl1lat 1 -mem:lat 80 2 -issue:inorder -redir:sim Results/dijkstrasmall_256_64_4.txt  ././../../MiBench/dijkstra_small ././../../MiBench/Benchmarks/network/dijkstra/input.dat
echo Starting dijkstrasmall benchmark with Number of sets=512 Line Size=16 and Associativity of 1. Total Cache size is 8192 Bytes
././../../simplesim-3.0/sim-outorder -cache:il1 il1:8:64:4:l -cache:dl1 dl1:512:16:1:l -cache:il1lat 1 -cache:dl1lat 1 -mem:lat 80 2 -issue:inorder -redir:sim Results/dijkstrasmall_512_16_1.txt  ././../../MiBench/dijkstra_small ././../../MiBench/Benchmarks/network/dijkstra/input.dat
echo Starting dijkstrasmall benchmark with Number of sets=512 Line Size=16 and Associativity of 2. Total Cache size is 8192 Bytes
././../../simplesim-3.0/sim-outorder -cache:il1 il1:8:64:4:l -cache:dl1 dl1:512:16:2:l -cache:il1lat 1 -cache:dl1lat 1 -mem:lat 80 2 -issue:inorder -redir:sim Results/dijkstrasmall_512_16_2.txt  ././../../MiBench/dijkstra_small ././../../MiBench/Benchmarks/network/dijkstra/input.dat
echo Starting dijkstrasmall benchmark with Number of sets=512 Line Size=16 and Associativity of 4. Total Cache size is 8192 Bytes
././../../simplesim-3.0/sim-outorder -cache:il1 il1:8:64:4:l -cache:dl1 dl1:512:16:4:l -cache:il1lat 1 -cache:dl1lat 1 -mem:lat 80 2 -issue:inorder -redir:sim Results/dijkstrasmall_512_16_4.txt  ././../../MiBench/dijkstra_small ././../../MiBench/Benchmarks/network/dijkstra/input.dat
echo Starting dijkstrasmall benchmark with Number of sets=512 Line Size=32 and Associativity of 1. Total Cache size is 16384 Bytes
././../../simplesim-3.0/sim-outorder -cache:il1 il1:8:64:4:l -cache:dl1 dl1:512:32:1:l -cache:il1lat 1 -cache:dl1lat 1 -mem:lat 80 2 -issue:inorder -redir:sim Results/dijkstrasmall_512_32_1.txt  ././../../MiBench/dijkstra_small ././../../MiBench/Benchmarks/network/dijkstra/input.dat
echo Starting dijkstrasmall benchmark with Number of sets=512 Line Size=32 and Associativity of 2. Total Cache size is 16384 Bytes
././../../simplesim-3.0/sim-outorder -cache:il1 il1:8:64:4:l -cache:dl1 dl1:512:32:2:l -cache:il1lat 1 -cache:dl1lat 1 -mem:lat 80 2 -issue:inorder -redir:sim Results/dijkstrasmall_512_32_2.txt  ././../../MiBench/dijkstra_small ././../../MiBench/Benchmarks/network/dijkstra/input.dat
echo Starting dijkstrasmall benchmark with Number of sets=512 Line Size=32 and Associativity of 4. Total Cache size is 16384 Bytes
././../../simplesim-3.0/sim-outorder -cache:il1 il1:8:64:4:l -cache:dl1 dl1:512:32:4:l -cache:il1lat 1 -cache:dl1lat 1 -mem:lat 80 2 -issue:inorder -redir:sim Results/dijkstrasmall_512_32_4.txt  ././../../MiBench/dijkstra_small ././../../MiBench/Benchmarks/network/dijkstra/input.dat
echo Starting dijkstrasmall benchmark with Number of sets=512 Line Size=64 and Associativity of 1. Total Cache size is 32768 Bytes
././../../simplesim-3.0/sim-outorder -cache:il1 il1:8:64:4:l -cache:dl1 dl1:512:64:1:l -cache:il1lat 1 -cache:dl1lat 1 -mem:lat 80 2 -issue:inorder -redir:sim Results/dijkstrasmall_512_64_1.txt  ././../../MiBench/dijkstra_small ././../../MiBench/Benchmarks/network/dijkstra/input.dat
echo Starting dijkstrasmall benchmark with Number of sets=512 Line Size=64 and Associativity of 2. Total Cache size is 32768 Bytes
././../../simplesim-3.0/sim-outorder -cache:il1 il1:8:64:4:l -cache:dl1 dl1:512:64:2:l -cache:il1lat 1 -cache:dl1lat 1 -mem:lat 80 2 -issue:inorder -redir:sim Results/dijkstrasmall_512_64_2.txt  ././../../MiBench/dijkstra_small ././../../MiBench/Benchmarks/network/dijkstra/input.dat
echo Starting dijkstrasmall benchmark with Number of sets=512 Line Size=64 and Associativity of 4. Total Cache size is 32768 Bytes
././../../simplesim-3.0/sim-outorder -cache:il1 il1:8:64:4:l -cache:dl1 dl1:512:64:4:l -cache:il1lat 1 -cache:dl1lat 1 -mem:lat 80 2 -issue:inorder -redir:sim Results/dijkstrasmall_512_64_4.txt  ././../../MiBench/dijkstra_small ././../../MiBench/Benchmarks/network/dijkstra/input.dat
echo -e '[0;31m#########################Starting Benchmark (fft)#########################[0m'
echo Starting fft benchmark with Number of sets=8 Line Size=16 and Associativity of 1. Total Cache size is 128 Bytes
././../../simplesim-3.0/sim-outorder -cache:il1 il1:8:64:4:l -cache:dl1 dl1:8:16:1:l -cache:il1lat 1 -cache:dl1lat 1 -mem:lat 80 2 -issue:inorder -redir:sim Results/fft_8_16_1.txt  ././../../MiBench/fft 4 4096
echo Starting fft benchmark with Number of sets=8 Line Size=16 and Associativity of 2. Total Cache size is 128 Bytes
././../../simplesim-3.0/sim-outorder -cache:il1 il1:8:64:4:l -cache:dl1 dl1:8:16:2:l -cache:il1lat 1 -cache:dl1lat 1 -mem:lat 80 2 -issue:inorder -redir:sim Results/fft_8_16_2.txt  ././../../MiBench/fft 4 4096
echo Starting fft benchmark with Number of sets=8 Line Size=16 and Associativity of 4. Total Cache size is 128 Bytes
././../../simplesim-3.0/sim-outorder -cache:il1 il1:8:64:4:l -cache:dl1 dl1:8:16:4:l -cache:il1lat 1 -cache:dl1lat 1 -mem:lat 80 2 -issue:inorder -redir:sim Results/fft_8_16_4.txt  ././../../MiBench/fft 4 4096
echo Starting fft benchmark with Number of sets=8 Line Size=32 and Associativity of 1. Total Cache size is 256 Bytes
././../../simplesim-3.0/sim-outorder -cache:il1 il1:8:64:4:l -cache:dl1 dl1:8:32:1:l -cache:il1lat 1 -cache:dl1lat 1 -mem:lat 80 2 -issue:inorder -redir:sim Results/fft_8_32_1.txt  ././../../MiBench/fft 4 4096
echo Starting fft benchmark with Number of sets=8 Line Size=32 and Associativity of 2. Total Cache size is 256 Bytes
././../../simplesim-3.0/sim-outorder -cache:il1 il1:8:64:4:l -cache:dl1 dl1:8:32:2:l -cache:il1lat 1 -cache:dl1lat 1 -mem:lat 80 2 -issue:inorder -redir:sim Results/fft_8_32_2.txt  ././../../MiBench/fft 4 4096
echo Starting fft benchmark with Number of sets=8 Line Size=32 and Associativity of 4. Total Cache size is 256 Bytes
././../../simplesim-3.0/sim-outorder -cache:il1 il1:8:64:4:l -cache:dl1 dl1:8:32:4:l -cache:il1lat 1 -cache:dl1lat 1 -mem:lat 80 2 -issue:inorder -redir:sim Results/fft_8_32_4.txt  ././../../MiBench/fft 4 4096
echo Starting fft benchmark with Number of sets=8 Line Size=64 and Associativity of 1. Total Cache size is 512 Bytes
././../../simplesim-3.0/sim-outorder -cache:il1 il1:8:64:4:l -cache:dl1 dl1:8:64:1:l -cache:il1lat 1 -cache:dl1lat 1 -mem:lat 80 2 -issue:inorder -redir:sim Results/fft_8_64_1.txt  ././../../MiBench/fft 4 4096
echo Starting fft benchmark with Number of sets=8 Line Size=64 and Associativity of 2. Total Cache size is 512 Bytes
././../../simplesim-3.0/sim-outorder -cache:il1 il1:8:64:4:l -cache:dl1 dl1:8:64:2:l -cache:il1lat 1 -cache:dl1lat 1 -mem:lat 80 2 -issue:inorder -redir:sim Results/fft_8_64_2.txt  ././../../MiBench/fft 4 4096
echo Starting fft benchmark with Number of sets=8 Line Size=64 and Associativity of 4. Total Cache size is 512 Bytes
././../../simplesim-3.0/sim-outorder -cache:il1 il1:8:64:4:l -cache:dl1 dl1:8:64:4:l -cache:il1lat 1 -cache:dl1lat 1 -mem:lat 80 2 -issue:inorder -redir:sim Results/fft_8_64_4.txt  ././../../MiBench/fft 4 4096
echo Starting fft benchmark with Number of sets=16 Line Size=16 and Associativity of 1. Total Cache size is 256 Bytes
././../../simplesim-3.0/sim-outorder -cache:il1 il1:8:64:4:l -cache:dl1 dl1:16:16:1:l -cache:il1lat 1 -cache:dl1lat 1 -mem:lat 80 2 -issue:inorder -redir:sim Results/fft_16_16_1.txt  ././../../MiBench/fft 4 4096
echo Starting fft benchmark with Number of sets=16 Line Size=16 and Associativity of 2. Total Cache size is 256 Bytes
././../../simplesim-3.0/sim-outorder -cache:il1 il1:8:64:4:l -cache:dl1 dl1:16:16:2:l -cache:il1lat 1 -cache:dl1lat 1 -mem:lat 80 2 -issue:inorder -redir:sim Results/fft_16_16_2.txt  ././../../MiBench/fft 4 4096
echo Starting fft benchmark with Number of sets=16 Line Size=16 and Associativity of 4. Total Cache size is 256 Bytes
././../../simplesim-3.0/sim-outorder -cache:il1 il1:8:64:4:l -cache:dl1 dl1:16:16:4:l -cache:il1lat 1 -cache:dl1lat 1 -mem:lat 80 2 -issue:inorder -redir:sim Results/fft_16_16_4.txt  ././../../MiBench/fft 4 4096
echo Starting fft benchmark with Number of sets=16 Line Size=32 and Associativity of 1. Total Cache size is 512 Bytes
././../../simplesim-3.0/sim-outorder -cache:il1 il1:8:64:4:l -cache:dl1 dl1:16:32:1:l -cache:il1lat 1 -cache:dl1lat 1 -mem:lat 80 2 -issue:inorder -redir:sim Results/fft_16_32_1.txt  ././../../MiBench/fft 4 4096
echo Starting fft benchmark with Number of sets=16 Line Size=32 and Associativity of 2. Total Cache size is 512 Bytes
././../../simplesim-3.0/sim-outorder -cache:il1 il1:8:64:4:l -cache:dl1 dl1:16:32:2:l -cache:il1lat 1 -cache:dl1lat 1 -mem:lat 80 2 -issue:inorder -redir:sim Results/fft_16_32_2.txt  ././../../MiBench/fft 4 4096
echo Starting fft benchmark with Number of sets=16 Line Size=32 and Associativity of 4. Total Cache size is 512 Bytes
././../../simplesim-3.0/sim-outorder -cache:il1 il1:8:64:4:l -cache:dl1 dl1:16:32:4:l -cache:il1lat 1 -cache:dl1lat 1 -mem:lat 80 2 -issue:inorder -redir:sim Results/fft_16_32_4.txt  ././../../MiBench/fft 4 4096
echo Starting fft benchmark with Number of sets=16 Line Size=64 and Associativity of 1. Total Cache size is 1024 Bytes
././../../simplesim-3.0/sim-outorder -cache:il1 il1:8:64:4:l -cache:dl1 dl1:16:64:1:l -cache:il1lat 1 -cache:dl1lat 1 -mem:lat 80 2 -issue:inorder -redir:sim Results/fft_16_64_1.txt  ././../../MiBench/fft 4 4096
echo Starting fft benchmark with Number of sets=16 Line Size=64 and Associativity of 2. Total Cache size is 1024 Bytes
././../../simplesim-3.0/sim-outorder -cache:il1 il1:8:64:4:l -cache:dl1 dl1:16:64:2:l -cache:il1lat 1 -cache:dl1lat 1 -mem:lat 80 2 -issue:inorder -redir:sim Results/fft_16_64_2.txt  ././../../MiBench/fft 4 4096
echo Starting fft benchmark with Number of sets=16 Line Size=64 and Associativity of 4. Total Cache size is 1024 Bytes
././../../simplesim-3.0/sim-outorder -cache:il1 il1:8:64:4:l -cache:dl1 dl1:16:64:4:l -cache:il1lat 1 -cache:dl1lat 1 -mem:lat 80 2 -issue:inorder -redir:sim Results/fft_16_64_4.txt  ././../../MiBench/fft 4 4096
echo Starting fft benchmark with Number of sets=32 Line Size=16 and Associativity of 1. Total Cache size is 512 Bytes
././../../simplesim-3.0/sim-outorder -cache:il1 il1:8:64:4:l -cache:dl1 dl1:32:16:1:l -cache:il1lat 1 -cache:dl1lat 1 -mem:lat 80 2 -issue:inorder -redir:sim Results/fft_32_16_1.txt  ././../../MiBench/fft 4 4096
echo Starting fft benchmark with Number of sets=32 Line Size=16 and Associativity of 2. Total Cache size is 512 Bytes
././../../simplesim-3.0/sim-outorder -cache:il1 il1:8:64:4:l -cache:dl1 dl1:32:16:2:l -cache:il1lat 1 -cache:dl1lat 1 -mem:lat 80 2 -issue:inorder -redir:sim Results/fft_32_16_2.txt  ././../../MiBench/fft 4 4096
echo Starting fft benchmark with Number of sets=32 Line Size=16 and Associativity of 4. Total Cache size is 512 Bytes
././../../simplesim-3.0/sim-outorder -cache:il1 il1:8:64:4:l -cache:dl1 dl1:32:16:4:l -cache:il1lat 1 -cache:dl1lat 1 -mem:lat 80 2 -issue:inorder -redir:sim Results/fft_32_16_4.txt  ././../../MiBench/fft 4 4096
echo Starting fft benchmark with Number of sets=32 Line Size=32 and Associativity of 1. Total Cache size is 1024 Bytes
././../../simplesim-3.0/sim-outorder -cache:il1 il1:8:64:4:l -cache:dl1 dl1:32:32:1:l -cache:il1lat 1 -cache:dl1lat 1 -mem:lat 80 2 -issue:inorder -redir:sim Results/fft_32_32_1.txt  ././../../MiBench/fft 4 4096
echo Starting fft benchmark with Number of sets=32 Line Size=32 and Associativity of 2. Total Cache size is 1024 Bytes
././../../simplesim-3.0/sim-outorder -cache:il1 il1:8:64:4:l -cache:dl1 dl1:32:32:2:l -cache:il1lat 1 -cache:dl1lat 1 -mem:lat 80 2 -issue:inorder -redir:sim Results/fft_32_32_2.txt  ././../../MiBench/fft 4 4096
echo Starting fft benchmark with Number of sets=32 Line Size=32 and Associativity of 4. Total Cache size is 1024 Bytes
././../../simplesim-3.0/sim-outorder -cache:il1 il1:8:64:4:l -cache:dl1 dl1:32:32:4:l -cache:il1lat 1 -cache:dl1lat 1 -mem:lat 80 2 -issue:inorder -redir:sim Results/fft_32_32_4.txt  ././../../MiBench/fft 4 4096
echo Starting fft benchmark with Number of sets=32 Line Size=64 and Associativity of 1. Total Cache size is 2048 Bytes
././../../simplesim-3.0/sim-outorder -cache:il1 il1:8:64:4:l -cache:dl1 dl1:32:64:1:l -cache:il1lat 1 -cache:dl1lat 1 -mem:lat 80 2 -issue:inorder -redir:sim Results/fft_32_64_1.txt  ././../../MiBench/fft 4 4096
echo Starting fft benchmark with Number of sets=32 Line Size=64 and Associativity of 2. Total Cache size is 2048 Bytes
././../../simplesim-3.0/sim-outorder -cache:il1 il1:8:64:4:l -cache:dl1 dl1:32:64:2:l -cache:il1lat 1 -cache:dl1lat 1 -mem:lat 80 2 -issue:inorder -redir:sim Results/fft_32_64_2.txt  ././../../MiBench/fft 4 4096
echo Starting fft benchmark with Number of sets=32 Line Size=64 and Associativity of 4. Total Cache size is 2048 Bytes
././../../simplesim-3.0/sim-outorder -cache:il1 il1:8:64:4:l -cache:dl1 dl1:32:64:4:l -cache:il1lat 1 -cache:dl1lat 1 -mem:lat 80 2 -issue:inorder -redir:sim Results/fft_32_64_4.txt  ././../../MiBench/fft 4 4096
echo Starting fft benchmark with Number of sets=64 Line Size=16 and Associativity of 1. Total Cache size is 1024 Bytes
././../../simplesim-3.0/sim-outorder -cache:il1 il1:8:64:4:l -cache:dl1 dl1:64:16:1:l -cache:il1lat 1 -cache:dl1lat 1 -mem:lat 80 2 -issue:inorder -redir:sim Results/fft_64_16_1.txt  ././../../MiBench/fft 4 4096
echo Starting fft benchmark with Number of sets=64 Line Size=16 and Associativity of 2. Total Cache size is 1024 Bytes
././../../simplesim-3.0/sim-outorder -cache:il1 il1:8:64:4:l -cache:dl1 dl1:64:16:2:l -cache:il1lat 1 -cache:dl1lat 1 -mem:lat 80 2 -issue:inorder -redir:sim Results/fft_64_16_2.txt  ././../../MiBench/fft 4 4096
echo Starting fft benchmark with Number of sets=64 Line Size=16 and Associativity of 4. Total Cache size is 1024 Bytes
././../../simplesim-3.0/sim-outorder -cache:il1 il1:8:64:4:l -cache:dl1 dl1:64:16:4:l -cache:il1lat 1 -cache:dl1lat 1 -mem:lat 80 2 -issue:inorder -redir:sim Results/fft_64_16_4.txt  ././../../MiBench/fft 4 4096
echo Starting fft benchmark with Number of sets=64 Line Size=32 and Associativity of 1. Total Cache size is 2048 Bytes
././../../simplesim-3.0/sim-outorder -cache:il1 il1:8:64:4:l -cache:dl1 dl1:64:32:1:l -cache:il1lat 1 -cache:dl1lat 1 -mem:lat 80 2 -issue:inorder -redir:sim Results/fft_64_32_1.txt  ././../../MiBench/fft 4 4096
echo Starting fft benchmark with Number of sets=64 Line Size=32 and Associativity of 2. Total Cache size is 2048 Bytes
././../../simplesim-3.0/sim-outorder -cache:il1 il1:8:64:4:l -cache:dl1 dl1:64:32:2:l -cache:il1lat 1 -cache:dl1lat 1 -mem:lat 80 2 -issue:inorder -redir:sim Results/fft_64_32_2.txt  ././../../MiBench/fft 4 4096
echo Starting fft benchmark with Number of sets=64 Line Size=32 and Associativity of 4. Total Cache size is 2048 Bytes
././../../simplesim-3.0/sim-outorder -cache:il1 il1:8:64:4:l -cache:dl1 dl1:64:32:4:l -cache:il1lat 1 -cache:dl1lat 1 -mem:lat 80 2 -issue:inorder -redir:sim Results/fft_64_32_4.txt  ././../../MiBench/fft 4 4096
echo Starting fft benchmark with Number of sets=64 Line Size=64 and Associativity of 1. Total Cache size is 4096 Bytes
././../../simplesim-3.0/sim-outorder -cache:il1 il1:8:64:4:l -cache:dl1 dl1:64:64:1:l -cache:il1lat 1 -cache:dl1lat 1 -mem:lat 80 2 -issue:inorder -redir:sim Results/fft_64_64_1.txt  ././../../MiBench/fft 4 4096
echo Starting fft benchmark with Number of sets=64 Line Size=64 and Associativity of 2. Total Cache size is 4096 Bytes
././../../simplesim-3.0/sim-outorder -cache:il1 il1:8:64:4:l -cache:dl1 dl1:64:64:2:l -cache:il1lat 1 -cache:dl1lat 1 -mem:lat 80 2 -issue:inorder -redir:sim Results/fft_64_64_2.txt  ././../../MiBench/fft 4 4096
echo Starting fft benchmark with Number of sets=64 Line Size=64 and Associativity of 4. Total Cache size is 4096 Bytes
././../../simplesim-3.0/sim-outorder -cache:il1 il1:8:64:4:l -cache:dl1 dl1:64:64:4:l -cache:il1lat 1 -cache:dl1lat 1 -mem:lat 80 2 -issue:inorder -redir:sim Results/fft_64_64_4.txt  ././../../MiBench/fft 4 4096
echo Starting fft benchmark with Number of sets=128 Line Size=16 and Associativity of 1. Total Cache size is 2048 Bytes
././../../simplesim-3.0/sim-outorder -cache:il1 il1:8:64:4:l -cache:dl1 dl1:128:16:1:l -cache:il1lat 1 -cache:dl1lat 1 -mem:lat 80 2 -issue:inorder -redir:sim Results/fft_128_16_1.txt  ././../../MiBench/fft 4 4096
echo Starting fft benchmark with Number of sets=128 Line Size=16 and Associativity of 2. Total Cache size is 2048 Bytes
././../../simplesim-3.0/sim-outorder -cache:il1 il1:8:64:4:l -cache:dl1 dl1:128:16:2:l -cache:il1lat 1 -cache:dl1lat 1 -mem:lat 80 2 -issue:inorder -redir:sim Results/fft_128_16_2.txt  ././../../MiBench/fft 4 4096
echo Starting fft benchmark with Number of sets=128 Line Size=16 and Associativity of 4. Total Cache size is 2048 Bytes
././../../simplesim-3.0/sim-outorder -cache:il1 il1:8:64:4:l -cache:dl1 dl1:128:16:4:l -cache:il1lat 1 -cache:dl1lat 1 -mem:lat 80 2 -issue:inorder -redir:sim Results/fft_128_16_4.txt  ././../../MiBench/fft 4 4096
echo Starting fft benchmark with Number of sets=128 Line Size=32 and Associativity of 1. Total Cache size is 4096 Bytes
././../../simplesim-3.0/sim-outorder -cache:il1 il1:8:64:4:l -cache:dl1 dl1:128:32:1:l -cache:il1lat 1 -cache:dl1lat 1 -mem:lat 80 2 -issue:inorder -redir:sim Results/fft_128_32_1.txt  ././../../MiBench/fft 4 4096
echo Starting fft benchmark with Number of sets=128 Line Size=32 and Associativity of 2. Total Cache size is 4096 Bytes
././../../simplesim-3.0/sim-outorder -cache:il1 il1:8:64:4:l -cache:dl1 dl1:128:32:2:l -cache:il1lat 1 -cache:dl1lat 1 -mem:lat 80 2 -issue:inorder -redir:sim Results/fft_128_32_2.txt  ././../../MiBench/fft 4 4096
echo Starting fft benchmark with Number of sets=128 Line Size=32 and Associativity of 4. Total Cache size is 4096 Bytes
././../../simplesim-3.0/sim-outorder -cache:il1 il1:8:64:4:l -cache:dl1 dl1:128:32:4:l -cache:il1lat 1 -cache:dl1lat 1 -mem:lat 80 2 -issue:inorder -redir:sim Results/fft_128_32_4.txt  ././../../MiBench/fft 4 4096
echo Starting fft benchmark with Number of sets=128 Line Size=64 and Associativity of 1. Total Cache size is 8192 Bytes
././../../simplesim-3.0/sim-outorder -cache:il1 il1:8:64:4:l -cache:dl1 dl1:128:64:1:l -cache:il1lat 1 -cache:dl1lat 1 -mem:lat 80 2 -issue:inorder -redir:sim Results/fft_128_64_1.txt  ././../../MiBench/fft 4 4096
echo Starting fft benchmark with Number of sets=128 Line Size=64 and Associativity of 2. Total Cache size is 8192 Bytes
././../../simplesim-3.0/sim-outorder -cache:il1 il1:8:64:4:l -cache:dl1 dl1:128:64:2:l -cache:il1lat 1 -cache:dl1lat 1 -mem:lat 80 2 -issue:inorder -redir:sim Results/fft_128_64_2.txt  ././../../MiBench/fft 4 4096
echo Starting fft benchmark with Number of sets=128 Line Size=64 and Associativity of 4. Total Cache size is 8192 Bytes
././../../simplesim-3.0/sim-outorder -cache:il1 il1:8:64:4:l -cache:dl1 dl1:128:64:4:l -cache:il1lat 1 -cache:dl1lat 1 -mem:lat 80 2 -issue:inorder -redir:sim Results/fft_128_64_4.txt  ././../../MiBench/fft 4 4096
echo Starting fft benchmark with Number of sets=256 Line Size=16 and Associativity of 1. Total Cache size is 4096 Bytes
././../../simplesim-3.0/sim-outorder -cache:il1 il1:8:64:4:l -cache:dl1 dl1:256:16:1:l -cache:il1lat 1 -cache:dl1lat 1 -mem:lat 80 2 -issue:inorder -redir:sim Results/fft_256_16_1.txt  ././../../MiBench/fft 4 4096
echo Starting fft benchmark with Number of sets=256 Line Size=16 and Associativity of 2. Total Cache size is 4096 Bytes
././../../simplesim-3.0/sim-outorder -cache:il1 il1:8:64:4:l -cache:dl1 dl1:256:16:2:l -cache:il1lat 1 -cache:dl1lat 1 -mem:lat 80 2 -issue:inorder -redir:sim Results/fft_256_16_2.txt  ././../../MiBench/fft 4 4096
echo Starting fft benchmark with Number of sets=256 Line Size=16 and Associativity of 4. Total Cache size is 4096 Bytes
././../../simplesim-3.0/sim-outorder -cache:il1 il1:8:64:4:l -cache:dl1 dl1:256:16:4:l -cache:il1lat 1 -cache:dl1lat 1 -mem:lat 80 2 -issue:inorder -redir:sim Results/fft_256_16_4.txt  ././../../MiBench/fft 4 4096
echo Starting fft benchmark with Number of sets=256 Line Size=32 and Associativity of 1. Total Cache size is 8192 Bytes
././../../simplesim-3.0/sim-outorder -cache:il1 il1:8:64:4:l -cache:dl1 dl1:256:32:1:l -cache:il1lat 1 -cache:dl1lat 1 -mem:lat 80 2 -issue:inorder -redir:sim Results/fft_256_32_1.txt  ././../../MiBench/fft 4 4096
echo Starting fft benchmark with Number of sets=256 Line Size=32 and Associativity of 2. Total Cache size is 8192 Bytes
././../../simplesim-3.0/sim-outorder -cache:il1 il1:8:64:4:l -cache:dl1 dl1:256:32:2:l -cache:il1lat 1 -cache:dl1lat 1 -mem:lat 80 2 -issue:inorder -redir:sim Results/fft_256_32_2.txt  ././../../MiBench/fft 4 4096
echo Starting fft benchmark with Number of sets=256 Line Size=32 and Associativity of 4. Total Cache size is 8192 Bytes
././../../simplesim-3.0/sim-outorder -cache:il1 il1:8:64:4:l -cache:dl1 dl1:256:32:4:l -cache:il1lat 1 -cache:dl1lat 1 -mem:lat 80 2 -issue:inorder -redir:sim Results/fft_256_32_4.txt  ././../../MiBench/fft 4 4096
echo Starting fft benchmark with Number of sets=256 Line Size=64 and Associativity of 1. Total Cache size is 16384 Bytes
././../../simplesim-3.0/sim-outorder -cache:il1 il1:8:64:4:l -cache:dl1 dl1:256:64:1:l -cache:il1lat 1 -cache:dl1lat 1 -mem:lat 80 2 -issue:inorder -redir:sim Results/fft_256_64_1.txt  ././../../MiBench/fft 4 4096
echo Starting fft benchmark with Number of sets=256 Line Size=64 and Associativity of 2. Total Cache size is 16384 Bytes
././../../simplesim-3.0/sim-outorder -cache:il1 il1:8:64:4:l -cache:dl1 dl1:256:64:2:l -cache:il1lat 1 -cache:dl1lat 1 -mem:lat 80 2 -issue:inorder -redir:sim Results/fft_256_64_2.txt  ././../../MiBench/fft 4 4096
echo Starting fft benchmark with Number of sets=256 Line Size=64 and Associativity of 4. Total Cache size is 16384 Bytes
././../../simplesim-3.0/sim-outorder -cache:il1 il1:8:64:4:l -cache:dl1 dl1:256:64:4:l -cache:il1lat 1 -cache:dl1lat 1 -mem:lat 80 2 -issue:inorder -redir:sim Results/fft_256_64_4.txt  ././../../MiBench/fft 4 4096
echo Starting fft benchmark with Number of sets=512 Line Size=16 and Associativity of 1. Total Cache size is 8192 Bytes
././../../simplesim-3.0/sim-outorder -cache:il1 il1:8:64:4:l -cache:dl1 dl1:512:16:1:l -cache:il1lat 1 -cache:dl1lat 1 -mem:lat 80 2 -issue:inorder -redir:sim Results/fft_512_16_1.txt  ././../../MiBench/fft 4 4096
echo Starting fft benchmark with Number of sets=512 Line Size=16 and Associativity of 2. Total Cache size is 8192 Bytes
././../../simplesim-3.0/sim-outorder -cache:il1 il1:8:64:4:l -cache:dl1 dl1:512:16:2:l -cache:il1lat 1 -cache:dl1lat 1 -mem:lat 80 2 -issue:inorder -redir:sim Results/fft_512_16_2.txt  ././../../MiBench/fft 4 4096
echo Starting fft benchmark with Number of sets=512 Line Size=16 and Associativity of 4. Total Cache size is 8192 Bytes
././../../simplesim-3.0/sim-outorder -cache:il1 il1:8:64:4:l -cache:dl1 dl1:512:16:4:l -cache:il1lat 1 -cache:dl1lat 1 -mem:lat 80 2 -issue:inorder -redir:sim Results/fft_512_16_4.txt  ././../../MiBench/fft 4 4096
echo Starting fft benchmark with Number of sets=512 Line Size=32 and Associativity of 1. Total Cache size is 16384 Bytes
././../../simplesim-3.0/sim-outorder -cache:il1 il1:8:64:4:l -cache:dl1 dl1:512:32:1:l -cache:il1lat 1 -cache:dl1lat 1 -mem:lat 80 2 -issue:inorder -redir:sim Results/fft_512_32_1.txt  ././../../MiBench/fft 4 4096
echo Starting fft benchmark with Number of sets=512 Line Size=32 and Associativity of 2. Total Cache size is 16384 Bytes
././../../simplesim-3.0/sim-outorder -cache:il1 il1:8:64:4:l -cache:dl1 dl1:512:32:2:l -cache:il1lat 1 -cache:dl1lat 1 -mem:lat 80 2 -issue:inorder -redir:sim Results/fft_512_32_2.txt  ././../../MiBench/fft 4 4096
echo Starting fft benchmark with Number of sets=512 Line Size=32 and Associativity of 4. Total Cache size is 16384 Bytes
././../../simplesim-3.0/sim-outorder -cache:il1 il1:8:64:4:l -cache:dl1 dl1:512:32:4:l -cache:il1lat 1 -cache:dl1lat 1 -mem:lat 80 2 -issue:inorder -redir:sim Results/fft_512_32_4.txt  ././../../MiBench/fft 4 4096
echo Starting fft benchmark with Number of sets=512 Line Size=64 and Associativity of 1. Total Cache size is 32768 Bytes
././../../simplesim-3.0/sim-outorder -cache:il1 il1:8:64:4:l -cache:dl1 dl1:512:64:1:l -cache:il1lat 1 -cache:dl1lat 1 -mem:lat 80 2 -issue:inorder -redir:sim Results/fft_512_64_1.txt  ././../../MiBench/fft 4 4096
echo Starting fft benchmark with Number of sets=512 Line Size=64 and Associativity of 2. Total Cache size is 32768 Bytes
././../../simplesim-3.0/sim-outorder -cache:il1 il1:8:64:4:l -cache:dl1 dl1:512:64:2:l -cache:il1lat 1 -cache:dl1lat 1 -mem:lat 80 2 -issue:inorder -redir:sim Results/fft_512_64_2.txt  ././../../MiBench/fft 4 4096
echo Starting fft benchmark with Number of sets=512 Line Size=64 and Associativity of 4. Total Cache size is 32768 Bytes
././../../simplesim-3.0/sim-outorder -cache:il1 il1:8:64:4:l -cache:dl1 dl1:512:64:4:l -cache:il1lat 1 -cache:dl1lat 1 -mem:lat 80 2 -issue:inorder -redir:sim Results/fft_512_64_4.txt  ././../../MiBench/fft 4 4096
echo -e '[0;31m#########################Starting Benchmark (fftinv)#########################[0m'
echo Starting fftinv benchmark with Number of sets=8 Line Size=16 and Associativity of 1. Total Cache size is 128 Bytes
././../../simplesim-3.0/sim-outorder -cache:il1 il1:8:64:4:l -cache:dl1 dl1:8:16:1:l -cache:il1lat 1 -cache:dl1lat 1 -mem:lat 80 2 -issue:inorder -redir:sim Results/fftinv_8_16_1.txt  ././../../MiBench/fft 4 8 -i
echo Starting fftinv benchmark with Number of sets=8 Line Size=16 and Associativity of 2. Total Cache size is 128 Bytes
././../../simplesim-3.0/sim-outorder -cache:il1 il1:8:64:4:l -cache:dl1 dl1:8:16:2:l -cache:il1lat 1 -cache:dl1lat 1 -mem:lat 80 2 -issue:inorder -redir:sim Results/fftinv_8_16_2.txt  ././../../MiBench/fft 4 8 -i
echo Starting fftinv benchmark with Number of sets=8 Line Size=16 and Associativity of 4. Total Cache size is 128 Bytes
././../../simplesim-3.0/sim-outorder -cache:il1 il1:8:64:4:l -cache:dl1 dl1:8:16:4:l -cache:il1lat 1 -cache:dl1lat 1 -mem:lat 80 2 -issue:inorder -redir:sim Results/fftinv_8_16_4.txt  ././../../MiBench/fft 4 8 -i
echo Starting fftinv benchmark with Number of sets=8 Line Size=32 and Associativity of 1. Total Cache size is 256 Bytes
././../../simplesim-3.0/sim-outorder -cache:il1 il1:8:64:4:l -cache:dl1 dl1:8:32:1:l -cache:il1lat 1 -cache:dl1lat 1 -mem:lat 80 2 -issue:inorder -redir:sim Results/fftinv_8_32_1.txt  ././../../MiBench/fft 4 8 -i
echo Starting fftinv benchmark with Number of sets=8 Line Size=32 and Associativity of 2. Total Cache size is 256 Bytes
././../../simplesim-3.0/sim-outorder -cache:il1 il1:8:64:4:l -cache:dl1 dl1:8:32:2:l -cache:il1lat 1 -cache:dl1lat 1 -mem:lat 80 2 -issue:inorder -redir:sim Results/fftinv_8_32_2.txt  ././../../MiBench/fft 4 8 -i
echo Starting fftinv benchmark with Number of sets=8 Line Size=32 and Associativity of 4. Total Cache size is 256 Bytes
././../../simplesim-3.0/sim-outorder -cache:il1 il1:8:64:4:l -cache:dl1 dl1:8:32:4:l -cache:il1lat 1 -cache:dl1lat 1 -mem:lat 80 2 -issue:inorder -redir:sim Results/fftinv_8_32_4.txt  ././../../MiBench/fft 4 8 -i
echo Starting fftinv benchmark with Number of sets=8 Line Size=64 and Associativity of 1. Total Cache size is 512 Bytes
././../../simplesim-3.0/sim-outorder -cache:il1 il1:8:64:4:l -cache:dl1 dl1:8:64:1:l -cache:il1lat 1 -cache:dl1lat 1 -mem:lat 80 2 -issue:inorder -redir:sim Results/fftinv_8_64_1.txt  ././../../MiBench/fft 4 8 -i
echo Starting fftinv benchmark with Number of sets=8 Line Size=64 and Associativity of 2. Total Cache size is 512 Bytes
././../../simplesim-3.0/sim-outorder -cache:il1 il1:8:64:4:l -cache:dl1 dl1:8:64:2:l -cache:il1lat 1 -cache:dl1lat 1 -mem:lat 80 2 -issue:inorder -redir:sim Results/fftinv_8_64_2.txt  ././../../MiBench/fft 4 8 -i
echo Starting fftinv benchmark with Number of sets=8 Line Size=64 and Associativity of 4. Total Cache size is 512 Bytes
././../../simplesim-3.0/sim-outorder -cache:il1 il1:8:64:4:l -cache:dl1 dl1:8:64:4:l -cache:il1lat 1 -cache:dl1lat 1 -mem:lat 80 2 -issue:inorder -redir:sim Results/fftinv_8_64_4.txt  ././../../MiBench/fft 4 8 -i
echo Starting fftinv benchmark with Number of sets=16 Line Size=16 and Associativity of 1. Total Cache size is 256 Bytes
././../../simplesim-3.0/sim-outorder -cache:il1 il1:8:64:4:l -cache:dl1 dl1:16:16:1:l -cache:il1lat 1 -cache:dl1lat 1 -mem:lat 80 2 -issue:inorder -redir:sim Results/fftinv_16_16_1.txt  ././../../MiBench/fft 4 8 -i
echo Starting fftinv benchmark with Number of sets=16 Line Size=16 and Associativity of 2. Total Cache size is 256 Bytes
././../../simplesim-3.0/sim-outorder -cache:il1 il1:8:64:4:l -cache:dl1 dl1:16:16:2:l -cache:il1lat 1 -cache:dl1lat 1 -mem:lat 80 2 -issue:inorder -redir:sim Results/fftinv_16_16_2.txt  ././../../MiBench/fft 4 8 -i
echo Starting fftinv benchmark with Number of sets=16 Line Size=16 and Associativity of 4. Total Cache size is 256 Bytes
././../../simplesim-3.0/sim-outorder -cache:il1 il1:8:64:4:l -cache:dl1 dl1:16:16:4:l -cache:il1lat 1 -cache:dl1lat 1 -mem:lat 80 2 -issue:inorder -redir:sim Results/fftinv_16_16_4.txt  ././../../MiBench/fft 4 8 -i
echo Starting fftinv benchmark with Number of sets=16 Line Size=32 and Associativity of 1. Total Cache size is 512 Bytes
././../../simplesim-3.0/sim-outorder -cache:il1 il1:8:64:4:l -cache:dl1 dl1:16:32:1:l -cache:il1lat 1 -cache:dl1lat 1 -mem:lat 80 2 -issue:inorder -redir:sim Results/fftinv_16_32_1.txt  ././../../MiBench/fft 4 8 -i
echo Starting fftinv benchmark with Number of sets=16 Line Size=32 and Associativity of 2. Total Cache size is 512 Bytes
././../../simplesim-3.0/sim-outorder -cache:il1 il1:8:64:4:l -cache:dl1 dl1:16:32:2:l -cache:il1lat 1 -cache:dl1lat 1 -mem:lat 80 2 -issue:inorder -redir:sim Results/fftinv_16_32_2.txt  ././../../MiBench/fft 4 8 -i
echo Starting fftinv benchmark with Number of sets=16 Line Size=32 and Associativity of 4. Total Cache size is 512 Bytes
././../../simplesim-3.0/sim-outorder -cache:il1 il1:8:64:4:l -cache:dl1 dl1:16:32:4:l -cache:il1lat 1 -cache:dl1lat 1 -mem:lat 80 2 -issue:inorder -redir:sim Results/fftinv_16_32_4.txt  ././../../MiBench/fft 4 8 -i
echo Starting fftinv benchmark with Number of sets=16 Line Size=64 and Associativity of 1. Total Cache size is 1024 Bytes
././../../simplesim-3.0/sim-outorder -cache:il1 il1:8:64:4:l -cache:dl1 dl1:16:64:1:l -cache:il1lat 1 -cache:dl1lat 1 -mem:lat 80 2 -issue:inorder -redir:sim Results/fftinv_16_64_1.txt  ././../../MiBench/fft 4 8 -i
echo Starting fftinv benchmark with Number of sets=16 Line Size=64 and Associativity of 2. Total Cache size is 1024 Bytes
././../../simplesim-3.0/sim-outorder -cache:il1 il1:8:64:4:l -cache:dl1 dl1:16:64:2:l -cache:il1lat 1 -cache:dl1lat 1 -mem:lat 80 2 -issue:inorder -redir:sim Results/fftinv_16_64_2.txt  ././../../MiBench/fft 4 8 -i
echo Starting fftinv benchmark with Number of sets=16 Line Size=64 and Associativity of 4. Total Cache size is 1024 Bytes
././../../simplesim-3.0/sim-outorder -cache:il1 il1:8:64:4:l -cache:dl1 dl1:16:64:4:l -cache:il1lat 1 -cache:dl1lat 1 -mem:lat 80 2 -issue:inorder -redir:sim Results/fftinv_16_64_4.txt  ././../../MiBench/fft 4 8 -i
echo Starting fftinv benchmark with Number of sets=32 Line Size=16 and Associativity of 1. Total Cache size is 512 Bytes
././../../simplesim-3.0/sim-outorder -cache:il1 il1:8:64:4:l -cache:dl1 dl1:32:16:1:l -cache:il1lat 1 -cache:dl1lat 1 -mem:lat 80 2 -issue:inorder -redir:sim Results/fftinv_32_16_1.txt  ././../../MiBench/fft 4 8 -i
echo Starting fftinv benchmark with Number of sets=32 Line Size=16 and Associativity of 2. Total Cache size is 512 Bytes
././../../simplesim-3.0/sim-outorder -cache:il1 il1:8:64:4:l -cache:dl1 dl1:32:16:2:l -cache:il1lat 1 -cache:dl1lat 1 -mem:lat 80 2 -issue:inorder -redir:sim Results/fftinv_32_16_2.txt  ././../../MiBench/fft 4 8 -i
echo Starting fftinv benchmark with Number of sets=32 Line Size=16 and Associativity of 4. Total Cache size is 512 Bytes
././../../simplesim-3.0/sim-outorder -cache:il1 il1:8:64:4:l -cache:dl1 dl1:32:16:4:l -cache:il1lat 1 -cache:dl1lat 1 -mem:lat 80 2 -issue:inorder -redir:sim Results/fftinv_32_16_4.txt  ././../../MiBench/fft 4 8 -i
echo Starting fftinv benchmark with Number of sets=32 Line Size=32 and Associativity of 1. Total Cache size is 1024 Bytes
././../../simplesim-3.0/sim-outorder -cache:il1 il1:8:64:4:l -cache:dl1 dl1:32:32:1:l -cache:il1lat 1 -cache:dl1lat 1 -mem:lat 80 2 -issue:inorder -redir:sim Results/fftinv_32_32_1.txt  ././../../MiBench/fft 4 8 -i
echo Starting fftinv benchmark with Number of sets=32 Line Size=32 and Associativity of 2. Total Cache size is 1024 Bytes
././../../simplesim-3.0/sim-outorder -cache:il1 il1:8:64:4:l -cache:dl1 dl1:32:32:2:l -cache:il1lat 1 -cache:dl1lat 1 -mem:lat 80 2 -issue:inorder -redir:sim Results/fftinv_32_32_2.txt  ././../../MiBench/fft 4 8 -i
echo Starting fftinv benchmark with Number of sets=32 Line Size=32 and Associativity of 4. Total Cache size is 1024 Bytes
././../../simplesim-3.0/sim-outorder -cache:il1 il1:8:64:4:l -cache:dl1 dl1:32:32:4:l -cache:il1lat 1 -cache:dl1lat 1 -mem:lat 80 2 -issue:inorder -redir:sim Results/fftinv_32_32_4.txt  ././../../MiBench/fft 4 8 -i
echo Starting fftinv benchmark with Number of sets=32 Line Size=64 and Associativity of 1. Total Cache size is 2048 Bytes
././../../simplesim-3.0/sim-outorder -cache:il1 il1:8:64:4:l -cache:dl1 dl1:32:64:1:l -cache:il1lat 1 -cache:dl1lat 1 -mem:lat 80 2 -issue:inorder -redir:sim Results/fftinv_32_64_1.txt  ././../../MiBench/fft 4 8 -i
echo Starting fftinv benchmark with Number of sets=32 Line Size=64 and Associativity of 2. Total Cache size is 2048 Bytes
[...]
echo Starting sha benchmark with Number of sets=16 Line Size=16 and Associativity of 4. Total Cache size is 256 Bytes
././../../simplesim-3.0/sim-outorder -cache:il1 il1:8:64:4:l -cache:dl1 dl1:16:16:4:l -cache:il1lat 1 -cache:dl1lat 1 -mem:lat 80 2 -issue:inorder -redir:sim Results/sha_16_16_4.txt  ././../../MiBench/sha ././../../MiBench/Benchmarks/security/sha/input_small.asc
echo Starting sha benchmark with Number of sets=16 Line Size=32 and Associativity of 1. Total Cache size is 512 Bytes
././../../simplesim-3.0/sim-outorder -cache:il1 il1:8:64:4:l -cache:dl1 dl1:16:32:1:l -cache:il1lat 1 -cache:dl1lat 1 -mem:lat 80 2 -issue:inorder -redir:sim Results/sha_16_32_1.txt  ././../../MiBench/sha ././../../MiBench/Benchmarks/security/sha/input_small.asc
echo Starting sha benchmark with Number of sets=16 Line Size=32 and Associativity of 2. Total Cache size is 512 Bytes
././../../simplesim-3.0/sim-outorder -cache:il1 il1:8:64:4:l -cache:dl1 dl1:16:32:2:l -cache:il1lat 1 -cache:dl1lat 1 -mem:lat 80 2 -issue:inorder -redir:sim Results/sha_16_32_2.txt  ././../../MiBench/sha ././../../MiBench/Benchmarks/security/sha/input_small.asc
echo Starting sha benchmark with Number of sets=16 Line Size=32 and Associativity of 4. Total Cache size is 512 Bytes
././../../simplesim-3.0/sim-outorder -cache:il1 il1:8:64:4:l -cache:dl1 dl1:16:32:4:l -cache:il1lat 1 -cache:dl1lat 1 -mem:lat 80 2 -issue:inorder -redir:sim Results/sha_16_32_4.txt  ././../../MiBench/sha ././../../MiBench/Benchmarks/security/sha/input_small.asc
echo Starting sha benchmark with Number of sets=16 Line Size=64 and Associativity of 1. Total Cache size is 1024 Bytes
././../../simplesim-3.0/sim-outorder -cache:il1 il1:8:64:4:l -cache:dl1 dl1:16:64:1:l -cache:il1lat 1 -cache:dl1lat 1 -mem:lat 80 2 -issue:inorder -redir:sim Results/sha_16_64_1.txt  ././../../MiBench/sha ././../../MiBench/Benchmarks/security/sha/input_small.asc
echo Starting sha benchmark with Number of sets=16 Line Size=64 and Associativity of 2. Total Cache size is 1024 Bytes
././../../simplesim-3.0/sim-outorder -cache:il1 il1:8:64:4:l -cache:dl1 dl1:16:64:2:l -cache:il1lat 1 -cache:dl1lat 1 -mem:lat 80 2 -issue:inorder -redir:sim Results/sha_16_64_2.txt  ././../../MiBench/sha ././../../MiBench/Benchmarks/security/sha/input_small.asc
echo Starting sha benchmark with Number of sets=16 Line Size=64 and Associativity of 4. Total Cache size is 1024 Bytes
././../../simplesim-3.0/sim-outorder -cache:il1 il1:8:64:4:l -cache:dl1 dl1:16:64:4:l -cache:il1lat 1 -cache:dl1lat 1 -mem:lat 80 2 -issue:inorder -redir:sim Results/sha_16_64_4.txt  ././../../MiBench/sha ././../../MiBench/Benchmarks/security/sha/input_small.asc
echo Starting sha benchmark with Number of sets=32 Line Size=16 and Associativity of 1. Total Cache size is 512 Bytes
././../../simplesim-3.0/sim-outorder -cache:il1 il1:8:64:4:l -cache:dl1 dl1:32:16:1:l -cache:il1lat 1 -cache:dl1lat 1 -mem:lat 80 2 -issue:inorder -redir:sim Results/sha_32_16_1.txt  ././../../MiBench/sha ././../../MiBench/Benchmarks/security/sha/input_small.asc
echo Starting sha benchmark with Number of sets=32 Line Size=16 and Associativity of 2. Total Cache size is 512 Bytes
././../../simplesim-3.0/sim-outorder -cache:il1 il1:8:64:4:l -cache:dl1 dl1:32:16:2:l -cache:il1lat 1 -cache:dl1lat 1 -mem:lat 80 2 -issue:inorder -redir:sim Results/sha_32_16_2.txt  ././../../MiBench/sha ././../../MiBench/Benchmarks/security/sha/input_small.asc
echo Starting sha benchmark with Number of sets=32 Line Size=16 and Associativity of 4. Total Cache size is 512 Bytes
././../../simplesim-3.0/sim-outorder -cache:il1 il1:8:64:4:l -cache:dl1 dl1:32:16:4:l -cache:il1lat 1 -cache:dl1lat 1 -mem:lat 80 2 -issue:inorder -redir:sim Results/sha_32_16_4.txt  ././../../MiBench/sha ././../../MiBench/Benchmarks/security/sha/input_small.asc
echo Starting sha benchmark with Number of sets=32 Line Size=32 and Associativity of 1. Total Cache size is 1024 Bytes
././../../simplesim-3.0/sim-outorder -cache:il1 il1:8:64:4:l -cache:dl1 dl1:32:32:1:l -cache:il1lat 1 -cache:dl1lat 1 -mem:lat 80 2 -issue:inorder -redir:sim Results/sha_32_32_1.txt  ././../../MiBench/sha ././../../MiBench/Benchmarks/security/sha/input_small.asc
echo Starting sha benchmark with Number of sets=32 Line Size=32 and Associativity of 2. Total Cache size is 1024 Bytes
././../../simplesim-3.0/sim-outorder -cache:il1 il1:8:64:4:l -cache:dl1 dl1:32:32:2:l -cache:il1lat 1 -cache:dl1lat 1 -mem:lat 80 2 -issue:inorder -redir:sim Results/sha_32_32_2.txt  ././../../MiBench/sha ././../../MiBench/Benchmarks/security/sha/input_small.asc
echo Starting sha benchmark with Number of sets=32 Line Size=32 and Associativity of 4. Total Cache size is 1024 Bytes
././../../simplesim-3.0/sim-outorder -cache:il1 il1:8:64:4:l -cache:dl1 dl1:32:32:4:l -cache:il1lat 1 -cache:dl1lat 1 -mem:lat 80 2 -issue:inorder -redir:sim Results/sha_32_32_4.txt  ././../../MiBench/sha ././../../MiBench/Benchmarks/security/sha/input_small.asc
echo Starting sha benchmark with Number of sets=32 Line Size=64 and Associativity of 1. Total Cache size is 2048 Bytes
././../../simplesim-3.0/sim-outorder -cache:il1 il1:8:64:4:l -cache:dl1 dl1:32:64:1:l -cache:il1lat 1 -cache:dl1lat 1 -mem:lat 80 2 -issue:inorder -redir:sim Results/sha_32_64_1.txt  ././../../MiBench/sha ././../../MiBench/Benchmarks/security/sha/input_small.asc
echo Starting sha benchmark with Number of sets=32 Line Size=64 and Associativity of 2. Total Cache size is 2048 Bytes
././../../simplesim-3.0/sim-outorder -cache:il1 il1:8:64:4:l -cache:dl1 dl1:32:64:2:l -cache:il1lat 1 -cache:dl1lat 1 -mem:lat 80 2 -issue:inorder -redir:sim Results/sha_32_64_2.txt  ././../../MiBench/sha ././../../MiBench/Benchmarks/security/sha/input_small.asc
echo Starting sha benchmark with Number of sets=32 Line Size=64 and Associativity of 4. Total Cache size is 2048 Bytes
././../../simplesim-3.0/sim-outorder -cache:il1 il1:8:64:4:l -cache:dl1 dl1:32:64:4:l -cache:il1lat 1 -cache:dl1lat 1 -mem:lat 80 2 -issue:inorder -redir:sim Results/sha_32_64_4.txt  ././../../MiBench/sha ././../../MiBench/Benchmarks/security/sha/input_small.asc
echo Starting sha benchmark with Number of sets=64 Line Size=16 and Associativity of 1. Total Cache size is 1024 Bytes
././../../simplesim-3.0/sim-outorder -cache:il1 il1:8:64:4:l -cache:dl1 dl1:64:16:1:l -cache:il1lat 1 -cache:dl1lat 1 -mem:lat 80 2 -issue:inorder -redir:sim Results/sha_64_16_1.txt  ././../../MiBench/sha ././../../MiBench/Benchmarks/security/sha/input_small.asc
echo Starting sha benchmark with Number of sets=64 Line Size=16 and Associativity of 2. Total Cache size is 1024 Bytes
././../../simplesim-3.0/sim-outorder -cache:il1 il1:8:64:4:l -cache:dl1 dl1:64:16:2:l -cache:il1lat 1 -cache:dl1lat 1 -mem:lat 80 2 -issue:inorder -redir:sim Results/sha_64_16_2.txt  ././../../MiBench/sha ././../../MiBench/Benchmarks/security/sha/input_small.asc
echo Starting sha benchmark with Number of sets=64 Line Size=16 and Associativity of 4. Total Cache size is 1024 Bytes
././../../simplesim-3.0/sim-outorder -cache:il1 il1:8:64:4:l -cache:dl1 dl1:64:16:4:l -cache:il1lat 1 -cache:dl1lat 1 -mem:lat 80 2 -issue:inorder -redir:sim Results/sha_64_16_4.txt  ././../../MiBench/sha ././../../MiBench/Benchmarks/security/sha/input_small.asc
echo Starting sha benchmark with Number of sets=64 Line Size=32 and Associativity of 1. Total Cache size is 2048 Bytes
././../../simplesim-3.0/sim-outorder -cache:il1 il1:8:64:4:l -cache:dl1 dl1:64:32:1:l -cache:il1lat 1 -cache:dl1lat 1 -mem:lat 80 2 -issue:inorder -redir:sim Results/sha_64_32_1.txt  ././../../MiBench/sha ././../../MiBench/Benchmarks/security/sha/input_small.asc
echo Starting sha benchmark with Number of sets=64 Line Size=32 and Associativity of 2. Total Cache size is 2048 Bytes
././../../simplesim-3.0/sim-outorder -cache:il1 il1:8:64:4:l -cache:dl1 dl1:64:32:2:l -cache:il1lat 1 -cache:dl1lat 1 -mem:lat 80 2 -issue:inorder -redir:sim Results/sha_64_32_2.txt  ././../../MiBench/sha ././../../MiBench/Benchmarks/security/sha/input_small.asc
echo Starting sha benchmark with Number of sets=64 Line Size=32 and Associativity of 4. Total Cache size is 2048 Bytes
././../../simplesim-3.0/sim-outorder -cache:il1 il1:8:64:4:l -cache:dl1 dl1:64:32:4:l -cache:il1lat 1 -cache:dl1lat 1 -mem:lat 80 2 -issue:inorder -redir:sim Results/sha_64_32_4.txt  ././../../MiBench/sha ././../../MiBench/Benchmarks/security/sha/input_small.asc
echo Starting sha benchmark with Number of sets=64 Line Size=64 and Associativity of 1. Total Cache size is 4096 Bytes
././../../simplesim-3.0/sim-outorder -cache:il1 il1:8:64:4:l -cache:dl1 dl1:64:64:1:l -cache:il1lat 1 -cache:dl1lat 1 -mem:lat 80 2 -issue:inorder -redir:sim Results/sha_64_64_1.txt  ././../../MiBench/sha ././../../MiBench/Benchmarks/security/sha/input_small.asc
echo Starting sha benchmark with Number of sets=64 Line Size=64 and Associativity of 2. Total Cache size is 4096 Bytes
././../../simplesim-3.0/sim-outorder -cache:il1 il1:8:64:4:l -cache:dl1 dl1:64:64:2:l -cache:il1lat 1 -cache:dl1lat 1 -mem:lat 80 2 -issue:inorder -redir:sim Results/sha_64_64_2.txt  ././../../MiBench/sha ././../../MiBench/Benchmarks/security/sha/input_small.asc
echo Starting sha benchmark with Number of sets=64 Line Size=64 and Associativity of 4. Total Cache size is 4096 Bytes
././../../simplesim-3.0/sim-outorder -cache:il1 il1:8:64:4:l -cache:dl1 dl1:64:64:4:l -cache:il1lat 1 -cache:dl1lat 1 -mem:lat 80 2 -issue:inorder -redir:sim Results/sha_64_64_4.txt  ././../../MiBench/sha ././../../MiBench/Benchmarks/security/sha/input_small.asc
echo Starting sha benchmark with Number of sets=128 Line Size=16 and Associativity of 1. Total Cache size is 2048 Bytes
././../../simplesim-3.0/sim-outorder -cache:il1 il1:8:64:4:l -cache:dl1 dl1:128:16:1:l -cache:il1lat 1 -cache:dl1lat 1 -mem:lat 80 2 -issue:inorder -redir:sim Results/sha_128_16_1.txt  ././../../MiBench/sha ././../../MiBench/Benchmarks/security/sha/input_small.asc
echo Starting sha benchmark with Number of sets=128 Line Size=16 and Associativity of 2. Total Cache size is 2048 Bytes
././../../simplesim-3.0/sim-outorder -cache:il1 il1:8:64:4:l -cache:dl1 dl1:128:16:2:l -cache:il1lat 1 -cache:dl1lat 1 -mem:lat 80 2 -issue:inorder -redir:sim Results/sha_128_16_2.txt  ././../../MiBench/sha ././../../MiBench/Benchmarks/security/sha/input_small.asc
echo Starting sha benchmark with Number of sets=128 Line Size=16 and Associativity of 4. Total Cache size is 2048 Bytes
././../../simplesim-3.0/sim-outorder -cache:il1 il1:8:64:4:l -cache:dl1 dl1:128:16:4:l -cache:il1lat 1 -cache:dl1lat 1 -mem:lat 80 2 -issue:inorder -redir:sim Results/sha_128_16_4.txt  ././../../MiBench/sha ././../../MiBench/Benchmarks/security/sha/input_small.asc
echo Starting sha benchmark with Number of sets=128 Line Size=32 and Associativity of 1. Total Cache size is 4096 Bytes
././../../simplesim-3.0/sim-outorder -cache:il1 il1:8:64:4:l -cache:dl1 dl1:128:32:1:l -cache:il1lat 1 -cache:dl1lat 1 -mem:lat 80 2 -issue:inorder -redir:sim Results/sha_128_32_1.txt  ././../../MiBench/sha ././../../MiBench/Benchmarks/security/sha/input_small.asc
echo Starting sha benchmark with Number of sets=128 Line Size=32 and Associativity of 2. Total Cache size is 4096 Bytes
././../../simplesim-3.0/sim-outorder -cache:il1 il1:8:64:4:l -cache:dl1 dl1:128:32:2:l -cache:il1lat 1 -cache:dl1lat 1 -mem:lat 80 2 -issue:inorder -redir:sim Results/sha_128_32_2.txt  ././../../MiBench/sha ././../../MiBench/Benchmarks/security/sha/input_small.asc
echo Starting sha benchmark with Number of sets=128 Line Size=32 and Associativity of 4. Total Cache size is 4096 Bytes
././../../simplesim-3.0/sim-outorder -cache:il1 il1:8:64:4:l -cache:dl1 dl1:128:32:4:l -cache:il1lat 1 -cache:dl1lat 1 -mem:lat 80 2 -issue:inorder -redir:sim Results/sha_128_32_4.txt  ././../../MiBench/sha ././../../MiBench/Benchmarks/security/sha/input_small.asc
echo Starting sha benchmark with Number of sets=128 Line Size=64 and Associativity of 1. Total Cache size is 8192 Bytes
././../../simplesim-3.0/sim-outorder -cache:il1 il1:8:64:4:l -cache:dl1 dl1:128:64:1:l -cache:il1lat 1 -cache:dl1lat 1 -mem:lat 80 2 -issue:inorder -redir:sim Results/sha_128_64_1.txt  ././../../MiBench/sha ././../../MiBench/Benchmarks/security/sha/input_small.asc
echo Starting sha benchmark with Number of sets=128 Line Size=64 and Associativity of 2. Total Cache size is 8192 Bytes
././../../simplesim-3.0/sim-outorder -cache:il1 il1:8:64:4:l -cache:dl1 dl1:128:64:2:l -cache:il1lat 1 -cache:dl1lat 1 -mem:lat 80 2 -issue:inorder -redir:sim Results/sha_128_64_2.txt  ././../../MiBench/sha ././../../MiBench/Benchmarks/security/sha/input_small.asc
echo Starting sha benchmark with Number of sets=128 Line Size=64 and Associativity of 4. Total Cache size is 8192 Bytes
././../../simplesim-3.0/sim-outorder -cache:il1 il1:8:64:4:l -cache:dl1 dl1:128:64:4:l -cache:il1lat 1 -cache:dl1lat 1 -mem:lat 80 2 -issue:inorder -redir:sim Results/sha_128_64_4.txt  ././../../MiBench/sha ././../../MiBench/Benchmarks/security/sha/input_small.asc
echo Starting sha benchmark with Number of sets=256 Line Size=16 and Associativity of 1. Total Cache size is 4096 Bytes
././../../simplesim-3.0/sim-outorder -cache:il1 il1:8:64:4:l -cache:dl1 dl1:256:16:1:l -cache:il1lat 1 -cache:dl1lat 1 -mem:lat 80 2 -issue:inorder -redir:sim Results/sha_256_16_1.txt  ././../../MiBench/sha ././../../MiBench/Benchmarks/security/sha/input_small.asc
echo Starting sha benchmark with Number of sets=256 Line Size=16 and Associativity of 2. Total Cache size is 4096 Bytes
././../../simplesim-3.0/sim-outorder -cache:il1 il1:8:64:4:l -cache:dl1 dl1:256:16:2:l -cache:il1lat 1 -cache:dl1lat 1 -mem:lat 80 2 -issue:inorder -redir:sim Results/sha_256_16_2.txt  ././../../MiBench/sha ././../../MiBench/Benchmarks/security/sha/input_small.asc
echo Starting sha benchmark with Number of sets=256 Line Size=16 and Associativity of 4. Total Cache size is 4096 Bytes
././../../simplesim-3.0/sim-outorder -cache:il1 il1:8:64:4:l -cache:dl1 dl1:256:16:4:l -cache:il1lat 1 -cache:dl1lat 1 -mem:lat 80 2 -issue:inorder -redir:sim Results/sha_256_16_4.txt  ././../../MiBench/sha ././../../MiBench/Benchmarks/security/sha/input_small.asc
echo Starting sha benchmark with Number of sets=256 Line Size=32 and Associativity of 1. Total Cache size is 8192 Bytes
././../../simplesim-3.0/sim-outorder -cache:il1 il1:8:64:4:l -cache:dl1 dl1:256:32:1:l -cache:il1lat 1 -cache:dl1lat 1 -mem:lat 80 2 -issue:inorder -redir:sim Results/sha_256_32_1.txt  ././../../MiBench/sha ././../../MiBench/Benchmarks/security/sha/input_small.asc
echo Starting sha benchmark with Number of sets=256 Line Size=32 and Associativity of 2. Total Cache size is 8192 Bytes
././../../simplesim-3.0/sim-outorder -cache:il1 il1:8:64:4:l -cache:dl1 dl1:256:32:2:l -cache:il1lat 1 -cache:dl1lat 1 -mem:lat 80 2 -issue:inorder -redir:sim Results/sha_256_32_2.txt  ././../../MiBench/sha ././../../MiBench/Benchmarks/security/sha/input_small.asc
echo Starting sha benchmark with Number of sets=256 Line Size=32 and Associativity of 4. Total Cache size is 8192 Bytes
././../../simplesim-3.0/sim-outorder -cache:il1 il1:8:64:4:l -cache:dl1 dl1:256:32:4:l -cache:il1lat 1 -cache:dl1lat 1 -mem:lat 80 2 -issue:inorder -redir:sim Results/sha_256_32_4.txt  ././../../MiBench/sha ././../../MiBench/Benchmarks/security/sha/input_small.asc
echo Starting sha benchmark with Number of sets=256 Line Size=64 and Associativity of 1. Total Cache size is 16384 Bytes
././../../simplesim-3.0/sim-outorder -cache:il1 il1:8:64:4:l -cache:dl1 dl1:256:64:1:l -cache:il1lat 1 -cache:dl1lat 1 -mem:lat 80 2 -issue:inorder -redir:sim Results/sha_256_64_1.txt  ././../../MiBench/sha ././../../MiBench/Benchmarks/security/sha/input_small.asc
echo Starting sha benchmark with Number of sets=256 Line Size=64 and Associativity of 2. Total Cache size is 16384 Bytes
././../../simplesim-3.0/sim-outorder -cache:il1 il1:8:64:4:l -cache:dl1 dl1:256:64:2:l -cache:il1lat 1 -cache:dl1lat 1 -mem:lat 80 2 -issue:inorder -redir:sim Results/sha_256_64_2.txt  ././../../MiBench/sha ././../../MiBench/Benchmarks/security/sha/input_small.asc
echo Starting sha benchmark with Number of sets=256 Line Size=64 and Associativity of 4. Total Cache size is 16384 Bytes
././../../simplesim-3.0/sim-outorder -cache:il1 il1:8:64:4:l -cache:dl1 dl1:256:64:4:l -cache:il1lat 1 -cache:dl1lat 1 -mem:lat 80 2 -issue:inorder -redir:sim Results/sha_256_64_4.txt  ././../../MiBench/sha ././../../MiBench/Benchmarks/security/sha/input_small.asc
echo Starting sha benchmark with Number of sets=512 Line Size=16 and Associativity of 1. Total Cache size is 8192 Bytes
././../../simplesim-3.0/sim-outorder -cache:il1 il1:8:64:4:l -cache:dl1 dl1:512:16:1:l -cache:il1lat 1 -cache:dl1lat 1 -mem:lat 80 2 -issue:inorder -redir:sim Results/sha_512_16_1.txt  ././../../MiBench/sha ././../../MiBench/Benchmarks/security/sha/input_small.asc
echo Starting sha benchmark with Number of sets=512 Line Size=16 and Associativity of 2. Total Cache size is 8192 Bytes
././../../simplesim-3.0/sim-outorder -cache:il1 il1:8:64:4:l -cache:dl1 dl1:512:16:2:l -cache:il1lat 1 -cache:dl1lat 1 -mem:lat 80 2 -issue:inorder -redir:sim Results/sha_512_16_2.txt  ././../../MiBench/sha ././../../MiBench/Benchmarks/security/sha/input_small.asc
echo Starting sha benchmark with Number of sets=512 Line Size=16 and Associativity of 4. Total Cache size is 8192 Bytes
././../../simplesim-3.0/sim-outorder -cache:il1 il1:8:64:4:l -cache:dl1 dl1:512:16:4:l -cache:il1lat 1 -cache:dl1lat 1 -mem:lat 80 2 -issue:inorder -redir:sim Results/sha_512_16_4.txt  ././../../MiBench/sha ././../../MiBench/Benchmarks/security/sha/input_small.asc
echo Starting sha benchmark with Number of sets=512 Line Size=32 and Associativity of 1. Total Cache size is 16384 Bytes
././../../simplesim-3.0/sim-outorder -cache:il1 il1:8:64:4:l -cache:dl1 dl1:512:32:1:l -cache:il1lat 1 -cache:dl1lat 1 -mem:lat 80 2 -issue:inorder -redir:sim Results/sha_512_32_1.txt  ././../../MiBench/sha ././../../MiBench/Benchmarks/security/sha/input_small.asc
echo Starting sha benchmark with Number of sets=512 Line Size=32 and Associativity of 2. Total Cache size is 16384 Bytes
././../../simplesim-3.0/sim-outorder -cache:il1 il1:8:64:4:l -cache:dl1 dl1:512:32:2:l -cache:il1lat 1 -cache:dl1lat 1 -mem:lat 80 2 -issue:inorder -redir:sim Results/sha_512_32_2.txt  ././../../MiBench/sha ././../../MiBench/Benchmarks/security/sha/input_small.asc
echo Starting sha benchmark with Number of sets=512 Line Size=32 and Associativity of 4. Total Cache size is 16384 Bytes
././../../simplesim-3.0/sim-outorder -cache:il1 il1:8:64:4:l -cache:dl1 dl1:512:32:4:l -cache:il1lat 1 -cache:dl1lat 1 -mem:lat 80 2 -issue:inorder -redir:sim Results/sha_512_32_4.txt  ././../../MiBench/sha ././../../MiBench/Benchmarks/security/sha/input_small.asc
echo Starting sha benchmark with Number of sets=512 Line Size=64 and Associativity of 1. Total Cache size is 32768 Bytes
././../../simplesim-3.0/sim-outorder -cache:il1 il1:8:64:4:l -cache:dl1 dl1:512:64:1:l -cache:il1lat 1 -cache:dl1lat 1 -mem:lat 80 2 -issue:inorder -redir:sim Results/sha_512_64_1.txt  ././../../MiBench/sha ././../../MiBench/Benchmarks/security/sha/input_small.asc
echo Starting sha benchmark with Number of sets=512 Line Size=64 and Associativity of 2. Total Cache size is 32768 Bytes
././../../simplesim-3.0/sim-outorder -cache:il1 il1:8:64:4:l -cache:dl1 dl1:512:64:2:l -cache:il1lat 1 -cache:dl1lat 1 -mem:lat 80 2 -issue:inorder -redir:sim Results/sha_512_64_2.txt  ././../../MiBench/sha ././../../MiBench/Benchmarks/security/sha/input_small.asc
echo Starting sha benchmark with Number of sets=512 Line Size=64 and Associativity of 4. Total Cache size is 32768 Bytes
././../../simplesim-3.0/sim-outorder -cache:il1 il1:8:64:4:l -cache:dl1 dl1:512:64:4:l -cache:il1lat 1 -cache:dl1lat 1 -mem:lat 80 2 -issue:inorder -redir:sim Results/sha_512_64_4.txt  ././../../MiBench/sha ././../../MiBench/Benchmarks/security/sha/input_small.asc
